
---------- Begin Simulation Statistics ----------
final_tick                               107455849000                       # Number of ticks from beginning of simulation (restored from checkpoints and never reset)
host_inst_rate                                 445139                       # Simulator instruction rate (inst/s)
host_mem_usage                                 707816                       # Number of bytes of host memory used
host_op_rate                                   485822                       # Simulator op (including micro ops) rate (op/s)
host_seconds                                   224.65                       # Real time elapsed on the host
host_tick_rate                              478327297                       # Simulator tick rate (ticks/s)
sim_freq                                 1000000000000                       # Frequency of simulated ticks
sim_insts                                   100000000                       # Number of instructions simulated
sim_ops                                     109139424                       # Number of ops (including micro ops) simulated
sim_seconds                                  0.107456                       # Number of seconds simulated
sim_ticks                                107455849000                       # Number of ticks simulated
system.cpu.branchPred.BTBCorrect                    0                       # Number of correct BTB predictions (this stat may not work properly.
system.cpu.branchPred.BTBHitPct             92.961916                       # BTB Hit Percentage
system.cpu.branchPred.BTBHits                 8062996                       # Number of BTB hits
system.cpu.branchPred.BTBLookups              8673440                       # Number of BTB lookups
system.cpu.branchPred.RASInCorrect                482                       # Number of incorrect RAS predictions.
system.cpu.branchPred.condIncorrect             88894                       # Number of conditional branches incorrect
system.cpu.branchPred.condPredicted          15821762                       # Number of conditional branches predicted
system.cpu.branchPred.indirectHits             287881                       # Number of indirect target hits.
system.cpu.branchPred.indirectLookups          551160                       # Number of indirect predictor lookups.
system.cpu.branchPred.indirectMisses           263279                       # Number of indirect misses.
system.cpu.branchPred.lookups                19662337                       # Number of BP lookups
system.cpu.branchPred.usedRAS                 1050723                       # Number of times the RAS was used to get a target.
system.cpu.branchPredindirectMispredicted          986                       # Number of mispredicted indirect branches.
system.cpu.committedInsts                   100000000                       # Number of instructions committed
system.cpu.committedOps                     109139424                       # Number of ops (including micro ops) committed
system.cpu.cpi                               1.074558                       # CPI: cycles per instruction
system.cpu.discardedOps                        430735                       # Number of ops (including micro ops) which were discarded before commit
system.cpu.dtb.accesses                             0                       # DTB accesses
system.cpu.dtb.align_faults                         0                       # Number of TLB faults due to alignment restrictions
system.cpu.dtb.domain_faults                        0                       # Number of TLB faults due to domain restrictions
system.cpu.dtb.flush_entries                        0                       # Number of entries that have been flushed from TLB
system.cpu.dtb.flush_tlb                            0                       # Number of times complete TLB was flushed
system.cpu.dtb.flush_tlb_asid                       0                       # Number of times TLB was flushed by ASID
system.cpu.dtb.flush_tlb_mva                        0                       # Number of times TLB was flushed by MVA
system.cpu.dtb.flush_tlb_mva_asid                   0                       # Number of times TLB was flushed by MVA & ASID
system.cpu.dtb.hits                                 0                       # DTB hits
system.cpu.dtb.inst_accesses                        0                       # ITB inst accesses
system.cpu.dtb.inst_hits                            0                       # ITB inst hits
system.cpu.dtb.inst_misses                          0                       # ITB inst misses
system.cpu.dtb.misses                               0                       # DTB misses
system.cpu.dtb.perms_faults                         0                       # Number of TLB faults due to permissions restrictions
system.cpu.dtb.prefetch_faults                      0                       # Number of TLB faults due to prefetch
system.cpu.dtb.read_accesses                        0                       # DTB read accesses
system.cpu.dtb.read_hits                            0                       # DTB read hits
system.cpu.dtb.read_misses                          0                       # DTB read misses
system.cpu.dtb.stage2_mmu.stage2_tlb.accesses            0                       # DTB accesses
system.cpu.dtb.stage2_mmu.stage2_tlb.align_faults            0                       # Number of TLB faults due to alignment restrictions
system.cpu.dtb.stage2_mmu.stage2_tlb.domain_faults            0                       # Number of TLB faults due to domain restrictions
system.cpu.dtb.stage2_mmu.stage2_tlb.flush_entries            0                       # Number of entries that have been flushed from TLB
system.cpu.dtb.stage2_mmu.stage2_tlb.flush_tlb            0                       # Number of times complete TLB was flushed
system.cpu.dtb.stage2_mmu.stage2_tlb.flush_tlb_asid            0                       # Number of times TLB was flushed by ASID
system.cpu.dtb.stage2_mmu.stage2_tlb.flush_tlb_mva            0                       # Number of times TLB was flushed by MVA
system.cpu.dtb.stage2_mmu.stage2_tlb.flush_tlb_mva_asid            0                       # Number of times TLB was flushed by MVA & ASID
system.cpu.dtb.stage2_mmu.stage2_tlb.hits            0                       # DTB hits
system.cpu.dtb.stage2_mmu.stage2_tlb.inst_accesses            0                       # ITB inst accesses
system.cpu.dtb.stage2_mmu.stage2_tlb.inst_hits            0                       # ITB inst hits
system.cpu.dtb.stage2_mmu.stage2_tlb.inst_misses            0                       # ITB inst misses
system.cpu.dtb.stage2_mmu.stage2_tlb.misses            0                       # DTB misses
system.cpu.dtb.stage2_mmu.stage2_tlb.perms_faults            0                       # Number of TLB faults due to permissions restrictions
system.cpu.dtb.stage2_mmu.stage2_tlb.prefetch_faults            0                       # Number of TLB faults due to prefetch
system.cpu.dtb.stage2_mmu.stage2_tlb.read_accesses            0                       # DTB read accesses
system.cpu.dtb.stage2_mmu.stage2_tlb.read_hits            0                       # DTB read hits
system.cpu.dtb.stage2_mmu.stage2_tlb.read_misses            0                       # DTB read misses
system.cpu.dtb.stage2_mmu.stage2_tlb.walker.walkRequestOrigin_Requested::Data            0                       # Table walker requests started/completed, data/inst
system.cpu.dtb.stage2_mmu.stage2_tlb.walker.walkRequestOrigin_Requested::Inst            0                       # Table walker requests started/completed, data/inst
system.cpu.dtb.stage2_mmu.stage2_tlb.walker.walkRequestOrigin_Requested::total            0                       # Table walker requests started/completed, data/inst
system.cpu.dtb.stage2_mmu.stage2_tlb.walker.walkRequestOrigin_Completed::Data            0                       # Table walker requests started/completed, data/inst
system.cpu.dtb.stage2_mmu.stage2_tlb.walker.walkRequestOrigin_Completed::Inst            0                       # Table walker requests started/completed, data/inst
system.cpu.dtb.stage2_mmu.stage2_tlb.walker.walkRequestOrigin_Completed::total            0                       # Table walker requests started/completed, data/inst
system.cpu.dtb.stage2_mmu.stage2_tlb.walker.walkRequestOrigin::total            0                       # Table walker requests started/completed, data/inst
system.cpu.dtb.stage2_mmu.stage2_tlb.walker.walks            0                       # Table walker walks requested
system.cpu.dtb.stage2_mmu.stage2_tlb.write_accesses            0                       # DTB write accesses
system.cpu.dtb.stage2_mmu.stage2_tlb.write_hits            0                       # DTB write hits
system.cpu.dtb.stage2_mmu.stage2_tlb.write_misses            0                       # DTB write misses
system.cpu.dtb.walker.walkRequestOrigin_Requested::Data            0                       # Table walker requests started/completed, data/inst
system.cpu.dtb.walker.walkRequestOrigin_Requested::Inst            0                       # Table walker requests started/completed, data/inst
system.cpu.dtb.walker.walkRequestOrigin_Requested::total            0                       # Table walker requests started/completed, data/inst
system.cpu.dtb.walker.walkRequestOrigin_Completed::Data            0                       # Table walker requests started/completed, data/inst
system.cpu.dtb.walker.walkRequestOrigin_Completed::Inst            0                       # Table walker requests started/completed, data/inst
system.cpu.dtb.walker.walkRequestOrigin_Completed::total            0                       # Table walker requests started/completed, data/inst
system.cpu.dtb.walker.walkRequestOrigin::total            0                       # Table walker requests started/completed, data/inst
system.cpu.dtb.walker.walks                         0                       # Table walker walks requested
system.cpu.dtb.write_accesses                       0                       # DTB write accesses
system.cpu.dtb.write_hits                           0                       # DTB write hits
system.cpu.dtb.write_misses                         0                       # DTB write misses
system.cpu.fetch2.amo_instructions                  0                       # Number of memory atomic instructions successfully decoded
system.cpu.fetch2.fp_instructions                   0                       # Number of floating point instructions successfully decoded
system.cpu.fetch2.int_instructions           49086418                       # Number of integer instructions successfully decoded
system.cpu.fetch2.load_instructions          17528921                       # Number of memory load instructions successfully decoded
system.cpu.fetch2.store_instructions         10083747                       # Number of memory store instructions successfully decoded
system.cpu.fetch2.vec_instructions                  0                       # Number of SIMD instructions successfully decoded
system.cpu.idleCycles                         2007449                       # Total number of cycles that the object has spent stopped
system.cpu.ipc                               0.930615                       # IPC: instructions per cycle
system.cpu.itb.accesses                             0                       # DTB accesses
system.cpu.itb.align_faults                         0                       # Number of TLB faults due to alignment restrictions
system.cpu.itb.domain_faults                        0                       # Number of TLB faults due to domain restrictions
system.cpu.itb.flush_entries                        0                       # Number of entries that have been flushed from TLB
system.cpu.itb.flush_tlb                            0                       # Number of times complete TLB was flushed
system.cpu.itb.flush_tlb_asid                       0                       # Number of times TLB was flushed by ASID
system.cpu.itb.flush_tlb_mva                        0                       # Number of times TLB was flushed by MVA
system.cpu.itb.flush_tlb_mva_asid                   0                       # Number of times TLB was flushed by MVA & ASID
system.cpu.itb.hits                                 0                       # DTB hits
system.cpu.itb.inst_accesses                        0                       # ITB inst accesses
system.cpu.itb.inst_hits                            0                       # ITB inst hits
system.cpu.itb.inst_misses                          0                       # ITB inst misses
system.cpu.itb.misses                               0                       # DTB misses
system.cpu.itb.perms_faults                         0                       # Number of TLB faults due to permissions restrictions
system.cpu.itb.prefetch_faults                      0                       # Number of TLB faults due to prefetch
system.cpu.itb.read_accesses                        0                       # DTB read accesses
system.cpu.itb.read_hits                            0                       # DTB read hits
system.cpu.itb.read_misses                          0                       # DTB read misses
system.cpu.itb.stage2_mmu.stage2_tlb.accesses            0                       # DTB accesses
system.cpu.itb.stage2_mmu.stage2_tlb.align_faults            0                       # Number of TLB faults due to alignment restrictions
system.cpu.itb.stage2_mmu.stage2_tlb.domain_faults            0                       # Number of TLB faults due to domain restrictions
system.cpu.itb.stage2_mmu.stage2_tlb.flush_entries            0                       # Number of entries that have been flushed from TLB
system.cpu.itb.stage2_mmu.stage2_tlb.flush_tlb            0                       # Number of times complete TLB was flushed
system.cpu.itb.stage2_mmu.stage2_tlb.flush_tlb_asid            0                       # Number of times TLB was flushed by ASID
system.cpu.itb.stage2_mmu.stage2_tlb.flush_tlb_mva            0                       # Number of times TLB was flushed by MVA
system.cpu.itb.stage2_mmu.stage2_tlb.flush_tlb_mva_asid            0                       # Number of times TLB was flushed by MVA & ASID
system.cpu.itb.stage2_mmu.stage2_tlb.hits            0                       # DTB hits
system.cpu.itb.stage2_mmu.stage2_tlb.inst_accesses            0                       # ITB inst accesses
system.cpu.itb.stage2_mmu.stage2_tlb.inst_hits            0                       # ITB inst hits
system.cpu.itb.stage2_mmu.stage2_tlb.inst_misses            0                       # ITB inst misses
system.cpu.itb.stage2_mmu.stage2_tlb.misses            0                       # DTB misses
system.cpu.itb.stage2_mmu.stage2_tlb.perms_faults            0                       # Number of TLB faults due to permissions restrictions
system.cpu.itb.stage2_mmu.stage2_tlb.prefetch_faults            0                       # Number of TLB faults due to prefetch
system.cpu.itb.stage2_mmu.stage2_tlb.read_accesses            0                       # DTB read accesses
system.cpu.itb.stage2_mmu.stage2_tlb.read_hits            0                       # DTB read hits
system.cpu.itb.stage2_mmu.stage2_tlb.read_misses            0                       # DTB read misses
system.cpu.itb.stage2_mmu.stage2_tlb.walker.walkRequestOrigin_Requested::Data            0                       # Table walker requests started/completed, data/inst
system.cpu.itb.stage2_mmu.stage2_tlb.walker.walkRequestOrigin_Requested::Inst            0                       # Table walker requests started/completed, data/inst
system.cpu.itb.stage2_mmu.stage2_tlb.walker.walkRequestOrigin_Requested::total            0                       # Table walker requests started/completed, data/inst
system.cpu.itb.stage2_mmu.stage2_tlb.walker.walkRequestOrigin_Completed::Data            0                       # Table walker requests started/completed, data/inst
system.cpu.itb.stage2_mmu.stage2_tlb.walker.walkRequestOrigin_Completed::Inst            0                       # Table walker requests started/completed, data/inst
system.cpu.itb.stage2_mmu.stage2_tlb.walker.walkRequestOrigin_Completed::total            0                       # Table walker requests started/completed, data/inst
system.cpu.itb.stage2_mmu.stage2_tlb.walker.walkRequestOrigin::total            0                       # Table walker requests started/completed, data/inst
system.cpu.itb.stage2_mmu.stage2_tlb.walker.walks            0                       # Table walker walks requested
system.cpu.itb.stage2_mmu.stage2_tlb.write_accesses            0                       # DTB write accesses
system.cpu.itb.stage2_mmu.stage2_tlb.write_hits            0                       # DTB write hits
system.cpu.itb.stage2_mmu.stage2_tlb.write_misses            0                       # DTB write misses
system.cpu.itb.walker.walkRequestOrigin_Requested::Data            0                       # Table walker requests started/completed, data/inst
system.cpu.itb.walker.walkRequestOrigin_Requested::Inst            0                       # Table walker requests started/completed, data/inst
system.cpu.itb.walker.walkRequestOrigin_Requested::total            0                       # Table walker requests started/completed, data/inst
system.cpu.itb.walker.walkRequestOrigin_Completed::Data            0                       # Table walker requests started/completed, data/inst
system.cpu.itb.walker.walkRequestOrigin_Completed::Inst            0                       # Table walker requests started/completed, data/inst
system.cpu.itb.walker.walkRequestOrigin_Completed::total            0                       # Table walker requests started/completed, data/inst
system.cpu.itb.walker.walkRequestOrigin::total            0                       # Table walker requests started/completed, data/inst
system.cpu.itb.walker.walks                         0                       # Table walker walks requested
system.cpu.itb.write_accesses                       0                       # DTB write accesses
system.cpu.itb.write_hits                           0                       # DTB write hits
system.cpu.itb.write_misses                         0                       # DTB write misses
system.cpu.numCycles                        107455849                       # number of cpu cycles simulated
system.cpu.numFetchSuspends                         0                       # Number of times Execute suspended instruction fetching
system.cpu.numWorkItemsCompleted                    0                       # number of work items this cpu completed
system.cpu.numWorkItemsStarted                      0                       # number of work items this cpu started
system.cpu.op_class_0::No_OpClass                   0      0.00%      0.00% # Class of committed instruction
system.cpu.op_class_0::IntAlu                72223173     66.18%     66.18% # Class of committed instruction
system.cpu.op_class_0::IntMult                 547032      0.50%     66.68% # Class of committed instruction
system.cpu.op_class_0::IntDiv                       0      0.00%     66.68% # Class of committed instruction
system.cpu.op_class_0::FloatAdd                     0      0.00%     66.68% # Class of committed instruction
system.cpu.op_class_0::FloatCmp                     0      0.00%     66.68% # Class of committed instruction
system.cpu.op_class_0::FloatCvt                     0      0.00%     66.68% # Class of committed instruction
system.cpu.op_class_0::FloatMult                    0      0.00%     66.68% # Class of committed instruction
system.cpu.op_class_0::FloatMultAcc                 0      0.00%     66.68% # Class of committed instruction
system.cpu.op_class_0::FloatDiv                     0      0.00%     66.68% # Class of committed instruction
system.cpu.op_class_0::FloatMisc                    0      0.00%     66.68% # Class of committed instruction
system.cpu.op_class_0::FloatSqrt                    0      0.00%     66.68% # Class of committed instruction
system.cpu.op_class_0::SimdAdd                 231656      0.21%     66.89% # Class of committed instruction
system.cpu.op_class_0::SimdAddAcc                   0      0.00%     66.89% # Class of committed instruction
system.cpu.op_class_0::SimdAlu                 148482      0.14%     67.02% # Class of committed instruction
system.cpu.op_class_0::SimdCmp                 115828      0.11%     67.13% # Class of committed instruction
system.cpu.op_class_0::SimdCvt                      0      0.00%     67.13% # Class of committed instruction
system.cpu.op_class_0::SimdMisc                 42808      0.04%     67.17% # Class of committed instruction
system.cpu.op_class_0::SimdMult                     0      0.00%     67.17% # Class of committed instruction
system.cpu.op_class_0::SimdMultAcc                  0      0.00%     67.17% # Class of committed instruction
system.cpu.op_class_0::SimdShift                    0      0.00%     67.17% # Class of committed instruction
system.cpu.op_class_0::SimdShiftAcc                 0      0.00%     67.17% # Class of committed instruction
system.cpu.op_class_0::SimdDiv                      0      0.00%     67.17% # Class of committed instruction
system.cpu.op_class_0::SimdSqrt                     0      0.00%     67.17% # Class of committed instruction
system.cpu.op_class_0::SimdFloatAdd                 0      0.00%     67.17% # Class of committed instruction
system.cpu.op_class_0::SimdFloatAlu                 0      0.00%     67.17% # Class of committed instruction
system.cpu.op_class_0::SimdFloatCmp                 0      0.00%     67.17% # Class of committed instruction
system.cpu.op_class_0::SimdFloatCvt                 0      0.00%     67.17% # Class of committed instruction
system.cpu.op_class_0::SimdFloatDiv                 0      0.00%     67.17% # Class of committed instruction
system.cpu.op_class_0::SimdFloatMisc           159857      0.15%     67.32% # Class of committed instruction
system.cpu.op_class_0::SimdFloatMult                0      0.00%     67.32% # Class of committed instruction
system.cpu.op_class_0::SimdFloatMultAcc             0      0.00%     67.32% # Class of committed instruction
system.cpu.op_class_0::SimdFloatSqrt                0      0.00%     67.32% # Class of committed instruction
system.cpu.op_class_0::SimdReduceAdd                0      0.00%     67.32% # Class of committed instruction
system.cpu.op_class_0::SimdReduceAlu                0      0.00%     67.32% # Class of committed instruction
system.cpu.op_class_0::SimdReduceCmp                0      0.00%     67.32% # Class of committed instruction
system.cpu.op_class_0::SimdFloatReduceAdd            0      0.00%     67.32% # Class of committed instruction
system.cpu.op_class_0::SimdFloatReduceCmp            0      0.00%     67.32% # Class of committed instruction
system.cpu.op_class_0::SimdAes                      0      0.00%     67.32% # Class of committed instruction
system.cpu.op_class_0::SimdAesMix                   0      0.00%     67.32% # Class of committed instruction
system.cpu.op_class_0::SimdSha1Hash                 0      0.00%     67.32% # Class of committed instruction
system.cpu.op_class_0::SimdSha1Hash2                0      0.00%     67.32% # Class of committed instruction
system.cpu.op_class_0::SimdSha256Hash               0      0.00%     67.32% # Class of committed instruction
system.cpu.op_class_0::SimdSha256Hash2              0      0.00%     67.32% # Class of committed instruction
system.cpu.op_class_0::SimdShaSigma2                0      0.00%     67.32% # Class of committed instruction
system.cpu.op_class_0::SimdShaSigma3                0      0.00%     67.32% # Class of committed instruction
system.cpu.op_class_0::SimdPredAlu                  0      0.00%     67.32% # Class of committed instruction
system.cpu.op_class_0::MemRead               20932798     19.18%     86.50% # Class of committed instruction
system.cpu.op_class_0::MemWrite              14737790     13.50%    100.00% # Class of committed instruction
system.cpu.op_class_0::FloatMemRead                 0      0.00%    100.00% # Class of committed instruction
system.cpu.op_class_0::FloatMemWrite                0      0.00%    100.00% # Class of committed instruction
system.cpu.op_class_0::IprAccess                    0      0.00%    100.00% # Class of committed instruction
system.cpu.op_class_0::InstPrefetch                 0      0.00%    100.00% # Class of committed instruction
system.cpu.op_class_0::total                109139424                       # Class of committed instruction
system.cpu.tickCycles                       105448400                       # Number of cycles that the object actually ticked
system.cpu.workload.numSyscalls                    85                       # Number of system calls
system.membus.snoop_filter.hit_multi_requests            0                       # Number of requests hitting in the snoop filter with multiple (>1) holders of the requested data.
system.membus.snoop_filter.hit_multi_snoops            0                       # Number of snoops hitting in the snoop filter with multiple (>1) holders of the requested data.
system.membus.snoop_filter.hit_single_requests        13250                       # Number of requests hitting in the snoop filter with a single holder of the requested data.
system.membus.snoop_filter.hit_single_snoops            0                       # Number of snoops hitting in the snoop filter with a single holder of the requested data.
system.membus.snoop_filter.tot_requests         34998                       # Total number of requests made to the snoop filter.
system.membus.snoop_filter.tot_snoops               0                       # Total number of snoops made to the snoop filter.
system.tol2bus.snoop_filter.hit_multi_requests           29                       # Number of requests hitting in the snoop filter with multiple (>1) holders of the requested data.
system.tol2bus.snoop_filter.hit_multi_snoops            3                       # Number of snoops hitting in the snoop filter with multiple (>1) holders of the requested data.
system.tol2bus.snoop_filter.hit_single_requests        33709                       # Number of requests hitting in the snoop filter with a single holder of the requested data.
system.tol2bus.snoop_filter.hit_single_snoops          328                       # Number of snoops hitting in the snoop filter with a single holder of the requested data.
system.tol2bus.snoop_filter.tot_requests        68223                       # Total number of requests made to the snoop filter.
system.tol2bus.snoop_filter.tot_snoops            331                       # Total number of snoops made to the snoop filter.
system.membus.pwrStateResidencyTicks::UNDEFINED 107455849000                       # Cumulative time (in ticks) in various power states
system.membus.trans_dist::ReadResp               2776                       # Transaction distribution
system.membus.trans_dist::WritebackDirty        13168                       # Transaction distribution
system.membus.trans_dist::CleanEvict               78                       # Transaction distribution
system.membus.trans_dist::ReadExReq             18976                       # Transaction distribution
system.membus.trans_dist::ReadExResp            18976                       # Transaction distribution
system.membus.trans_dist::ReadSharedReq          2776                       # Transaction distribution
system.membus.pkt_count_system.l2.mem_side::system.mem_ctrls.port        56750                       # Packet count per connected master and slave (bytes)
system.membus.pkt_count::total                  56750                       # Packet count per connected master and slave (bytes)
system.membus.pkt_size_system.l2.mem_side::system.mem_ctrls.port      4469760                       # Cumulative packet size per connected master and slave (bytes)
system.membus.pkt_size::total                 4469760                       # Cumulative packet size per connected master and slave (bytes)
system.membus.snoops                                0                       # Total snoops (count)
system.membus.snoopTraffic                          0                       # Total snoop traffic (bytes)
system.membus.snoop_fanout::samples             21752                       # Request fanout histogram
system.membus.snoop_fanout::mean                    0                       # Request fanout histogram
system.membus.snoop_fanout::stdev                   0                       # Request fanout histogram
system.membus.snoop_fanout::underflows              0      0.00%      0.00% # Request fanout histogram
system.membus.snoop_fanout::0                   21752    100.00%    100.00% # Request fanout histogram
system.membus.snoop_fanout::1                       0      0.00%    100.00% # Request fanout histogram
system.membus.snoop_fanout::overflows               0      0.00%    100.00% # Request fanout histogram
system.membus.snoop_fanout::min_value               0                       # Request fanout histogram
system.membus.snoop_fanout::max_value               0                       # Request fanout histogram
system.membus.snoop_fanout::total               21752                       # Request fanout histogram
system.membus.respLayer1.occupancy          205600250                       # Layer occupancy (ticks)
system.membus.respLayer1.utilization              0.2                       # Layer utilization (%)
system.membus.reqLayer0.occupancy           140342000                       # Layer occupancy (ticks)
system.membus.reqLayer0.utilization               0.1                       # Layer utilization (%)
system.tol2bus.pwrStateResidencyTicks::UNDEFINED 107455849000                       # Cumulative time (in ticks) in various power states
system.tol2bus.trans_dist::ReadResp             15507                       # Transaction distribution
system.tol2bus.trans_dist::WritebackDirty        44488                       # Transaction distribution
system.tol2bus.trans_dist::WritebackClean           54                       # Transaction distribution
system.tol2bus.trans_dist::CleanEvict            2736                       # Transaction distribution
system.tol2bus.trans_dist::ReadExReq            19010                       # Transaction distribution
system.tol2bus.trans_dist::ReadExResp           19010                       # Transaction distribution
system.tol2bus.trans_dist::ReadCleanReq           353                       # Transaction distribution
system.tol2bus.trans_dist::ReadSharedReq        15154                       # Transaction distribution
system.tol2bus.pkt_count_system.cpu.icache.mem_side::system.l2.cpu_side          760                       # Packet count per connected master and slave (bytes)
system.tol2bus.pkt_count_system.cpu.dcache.mem_side::system.l2.cpu_side       101980                       # Packet count per connected master and slave (bytes)
system.tol2bus.pkt_count::total                102740                       # Packet count per connected master and slave (bytes)
system.tol2bus.pkt_size_system.cpu.icache.mem_side::system.l2.cpu_side        52096                       # Cumulative packet size per connected master and slave (bytes)
system.tol2bus.pkt_size_system.cpu.dcache.mem_side::system.l2.cpu_side      8381952                       # Cumulative packet size per connected master and slave (bytes)
system.tol2bus.pkt_size::total                8434048                       # Cumulative packet size per connected master and slave (bytes)
system.tol2bus.snoops                           13572                       # Total snoops (count)
system.tol2bus.snoopTraffic                   1685504                       # Total snoop traffic (bytes)
system.tol2bus.snoop_fanout::samples            48089                       # Request fanout histogram
system.tol2bus.snoop_fanout::mean            0.007611                       # Request fanout histogram
system.tol2bus.snoop_fanout::stdev           0.087624                       # Request fanout histogram
system.tol2bus.snoop_fanout::underflows             0      0.00%      0.00% # Request fanout histogram
system.tol2bus.snoop_fanout::0                  47726     99.25%     99.25% # Request fanout histogram
system.tol2bus.snoop_fanout::1                    360      0.75%     99.99% # Request fanout histogram
system.tol2bus.snoop_fanout::2                      3      0.01%    100.00% # Request fanout histogram
system.tol2bus.snoop_fanout::overflows              0      0.00%    100.00% # Request fanout histogram
system.tol2bus.snoop_fanout::min_value              0                       # Request fanout histogram
system.tol2bus.snoop_fanout::max_value              2                       # Request fanout histogram
system.tol2bus.snoop_fanout::total              48089                       # Request fanout histogram
system.tol2bus.reqLayer0.occupancy          193719000                       # Layer occupancy (ticks)
system.tol2bus.reqLayer0.utilization              0.2                       # Layer utilization (%)
system.tol2bus.respLayer1.occupancy         170822997                       # Layer occupancy (ticks)
system.tol2bus.respLayer1.utilization             0.2                       # Layer utilization (%)
system.tol2bus.respLayer0.occupancy           1765000                       # Layer occupancy (ticks)
system.tol2bus.respLayer0.utilization             0.0                       # Layer utilization (%)
system.voltage_domain.voltage                       1                       # Voltage in Volts
system.clk_domain.clock                          1000                       # Clock period in ticks
system.l2.pwrStateResidencyTicks::UNDEFINED 107455849000                       # Cumulative time (in ticks) in various power states
system.l2.demand_hits::.cpu.inst                   21                       # number of demand (read+write) hits
system.l2.demand_hits::.cpu.data                12741                       # number of demand (read+write) hits
system.l2.demand_hits::total                    12762                       # number of demand (read+write) hits
system.l2.overall_hits::.cpu.inst                  21                       # number of overall hits
system.l2.overall_hits::.cpu.data               12741                       # number of overall hits
system.l2.overall_hits::total                   12762                       # number of overall hits
system.l2.demand_misses::.cpu.inst                332                       # number of demand (read+write) misses
system.l2.demand_misses::.cpu.data              21423                       # number of demand (read+write) misses
system.l2.demand_misses::total                  21755                       # number of demand (read+write) misses
system.l2.overall_misses::.cpu.inst               332                       # number of overall misses
system.l2.overall_misses::.cpu.data             21423                       # number of overall misses
system.l2.overall_misses::total                 21755                       # number of overall misses
system.l2.demand_miss_latency::.cpu.inst     33790000                       # number of demand (read+write) miss cycles
system.l2.demand_miss_latency::.cpu.data   2359699000                       # number of demand (read+write) miss cycles
system.l2.demand_miss_latency::total       2393489000                       # number of demand (read+write) miss cycles
system.l2.overall_miss_latency::.cpu.inst     33790000                       # number of overall miss cycles
system.l2.overall_miss_latency::.cpu.data   2359699000                       # number of overall miss cycles
system.l2.overall_miss_latency::total      2393489000                       # number of overall miss cycles
system.l2.demand_accesses::.cpu.inst              353                       # number of demand (read+write) accesses
system.l2.demand_accesses::.cpu.data            34164                       # number of demand (read+write) accesses
system.l2.demand_accesses::total                34517                       # number of demand (read+write) accesses
system.l2.overall_accesses::.cpu.inst             353                       # number of overall (read+write) accesses
system.l2.overall_accesses::.cpu.data           34164                       # number of overall (read+write) accesses
system.l2.overall_accesses::total               34517                       # number of overall (read+write) accesses
system.l2.demand_miss_rate::.cpu.inst        0.940510                       # miss rate for demand accesses
system.l2.demand_miss_rate::.cpu.data        0.627064                       # miss rate for demand accesses
system.l2.demand_miss_rate::total            0.630269                       # miss rate for demand accesses
system.l2.overall_miss_rate::.cpu.inst       0.940510                       # miss rate for overall accesses
system.l2.overall_miss_rate::.cpu.data       0.627064                       # miss rate for overall accesses
system.l2.overall_miss_rate::total           0.630269                       # miss rate for overall accesses
system.l2.demand_avg_miss_latency::.cpu.inst 101777.108434                       # average overall miss latency
system.l2.demand_avg_miss_latency::.cpu.data 110147.925127                       # average overall miss latency
system.l2.demand_avg_miss_latency::total 110020.179269                       # average overall miss latency
system.l2.overall_avg_miss_latency::.cpu.inst 101777.108434                       # average overall miss latency
system.l2.overall_avg_miss_latency::.cpu.data 110147.925127                       # average overall miss latency
system.l2.overall_avg_miss_latency::total 110020.179269                       # average overall miss latency
system.l2.blocked_cycles::no_mshrs                  0                       # number of cycles access was blocked
system.l2.blocked_cycles::no_targets                0                       # number of cycles access was blocked
system.l2.blocked::no_mshrs                         0                       # number of cycles access was blocked
system.l2.blocked::no_targets                       0                       # number of cycles access was blocked
system.l2.avg_blocked_cycles::no_mshrs            nan                       # average number of cycles each access was blocked
system.l2.avg_blocked_cycles::no_targets          nan                       # average number of cycles each access was blocked
system.l2.writebacks::.writebacks               13168                       # number of writebacks
system.l2.writebacks::total                     13168                       # number of writebacks
system.l2.demand_mshr_hits::.cpu.data               3                       # number of demand (read+write) MSHR hits
system.l2.demand_mshr_hits::total                   3                       # number of demand (read+write) MSHR hits
system.l2.overall_mshr_hits::.cpu.data              3                       # number of overall MSHR hits
system.l2.overall_mshr_hits::total                  3                       # number of overall MSHR hits
system.l2.demand_mshr_misses::.cpu.inst           332                       # number of demand (read+write) MSHR misses
system.l2.demand_mshr_misses::.cpu.data         21420                       # number of demand (read+write) MSHR misses
system.l2.demand_mshr_misses::total             21752                       # number of demand (read+write) MSHR misses
system.l2.overall_mshr_misses::.cpu.inst          332                       # number of overall MSHR misses
system.l2.overall_mshr_misses::.cpu.data        21420                       # number of overall MSHR misses
system.l2.overall_mshr_misses::total            21752                       # number of overall MSHR misses
system.l2.demand_mshr_miss_latency::.cpu.inst     27150000                       # number of demand (read+write) MSHR miss cycles
system.l2.demand_mshr_miss_latency::.cpu.data   1931025000                       # number of demand (read+write) MSHR miss cycles
system.l2.demand_mshr_miss_latency::total   1958175000                       # number of demand (read+write) MSHR miss cycles
system.l2.overall_mshr_miss_latency::.cpu.inst     27150000                       # number of overall MSHR miss cycles
system.l2.overall_mshr_miss_latency::.cpu.data   1931025000                       # number of overall MSHR miss cycles
system.l2.overall_mshr_miss_latency::total   1958175000                       # number of overall MSHR miss cycles
system.l2.demand_mshr_miss_rate::.cpu.inst     0.940510                       # mshr miss rate for demand accesses
system.l2.demand_mshr_miss_rate::.cpu.data     0.626976                       # mshr miss rate for demand accesses
system.l2.demand_mshr_miss_rate::total       0.630182                       # mshr miss rate for demand accesses
system.l2.overall_mshr_miss_rate::.cpu.inst     0.940510                       # mshr miss rate for overall accesses
system.l2.overall_mshr_miss_rate::.cpu.data     0.626976                       # mshr miss rate for overall accesses
system.l2.overall_mshr_miss_rate::total      0.630182                       # mshr miss rate for overall accesses
system.l2.demand_avg_mshr_miss_latency::.cpu.inst 81777.108434                       # average overall mshr miss latency
system.l2.demand_avg_mshr_miss_latency::.cpu.data 90150.560224                       # average overall mshr miss latency
system.l2.demand_avg_mshr_miss_latency::total 90022.756528                       # average overall mshr miss latency
system.l2.overall_avg_mshr_miss_latency::.cpu.inst 81777.108434                       # average overall mshr miss latency
system.l2.overall_avg_mshr_miss_latency::.cpu.data 90150.560224                       # average overall mshr miss latency
system.l2.overall_avg_mshr_miss_latency::total 90022.756528                       # average overall mshr miss latency
system.l2.replacements                          13572                       # number of replacements
system.l2.WritebackDirty_hits::.writebacks        31320                       # number of WritebackDirty hits
system.l2.WritebackDirty_hits::total            31320                       # number of WritebackDirty hits
system.l2.WritebackDirty_accesses::.writebacks        31320                       # number of WritebackDirty accesses(hits+misses)
system.l2.WritebackDirty_accesses::total        31320                       # number of WritebackDirty accesses(hits+misses)
system.l2.WritebackClean_hits::.writebacks           52                       # number of WritebackClean hits
system.l2.WritebackClean_hits::total               52                       # number of WritebackClean hits
system.l2.WritebackClean_accesses::.writebacks           52                       # number of WritebackClean accesses(hits+misses)
system.l2.WritebackClean_accesses::total           52                       # number of WritebackClean accesses(hits+misses)
system.l2.CleanEvict_mshr_misses::.writebacks            5                       # number of CleanEvict MSHR misses
system.l2.CleanEvict_mshr_misses::total             5                       # number of CleanEvict MSHR misses
system.l2.CleanEvict_mshr_miss_rate::.writebacks          inf                       # mshr miss rate for CleanEvict accesses
system.l2.CleanEvict_mshr_miss_rate::total          inf                       # mshr miss rate for CleanEvict accesses
system.l2.ReadExReq_hits::.cpu.data                34                       # number of ReadExReq hits
system.l2.ReadExReq_hits::total                    34                       # number of ReadExReq hits
system.l2.ReadExReq_misses::.cpu.data           18976                       # number of ReadExReq misses
system.l2.ReadExReq_misses::total               18976                       # number of ReadExReq misses
system.l2.ReadExReq_miss_latency::.cpu.data   2078982000                       # number of ReadExReq miss cycles
system.l2.ReadExReq_miss_latency::total    2078982000                       # number of ReadExReq miss cycles
system.l2.ReadExReq_accesses::.cpu.data         19010                       # number of ReadExReq accesses(hits+misses)
system.l2.ReadExReq_accesses::total             19010                       # number of ReadExReq accesses(hits+misses)
system.l2.ReadExReq_miss_rate::.cpu.data     0.998211                       # miss rate for ReadExReq accesses
system.l2.ReadExReq_miss_rate::total         0.998211                       # miss rate for ReadExReq accesses
system.l2.ReadExReq_avg_miss_latency::.cpu.data 109558.494941                       # average ReadExReq miss latency
system.l2.ReadExReq_avg_miss_latency::total 109558.494941                       # average ReadExReq miss latency
system.l2.ReadExReq_mshr_misses::.cpu.data        18976                       # number of ReadExReq MSHR misses
system.l2.ReadExReq_mshr_misses::total          18976                       # number of ReadExReq MSHR misses
system.l2.ReadExReq_mshr_miss_latency::.cpu.data   1699462000                       # number of ReadExReq MSHR miss cycles
system.l2.ReadExReq_mshr_miss_latency::total   1699462000                       # number of ReadExReq MSHR miss cycles
system.l2.ReadExReq_mshr_miss_rate::.cpu.data     0.998211                       # mshr miss rate for ReadExReq accesses
system.l2.ReadExReq_mshr_miss_rate::total     0.998211                       # mshr miss rate for ReadExReq accesses
system.l2.ReadExReq_avg_mshr_miss_latency::.cpu.data 89558.494941                       # average ReadExReq mshr miss latency
system.l2.ReadExReq_avg_mshr_miss_latency::total 89558.494941                       # average ReadExReq mshr miss latency
system.l2.ReadCleanReq_hits::.cpu.inst             21                       # number of ReadCleanReq hits
system.l2.ReadCleanReq_hits::total                 21                       # number of ReadCleanReq hits
system.l2.ReadCleanReq_misses::.cpu.inst          332                       # number of ReadCleanReq misses
system.l2.ReadCleanReq_misses::total              332                       # number of ReadCleanReq misses
system.l2.ReadCleanReq_miss_latency::.cpu.inst     33790000                       # number of ReadCleanReq miss cycles
system.l2.ReadCleanReq_miss_latency::total     33790000                       # number of ReadCleanReq miss cycles
system.l2.ReadCleanReq_accesses::.cpu.inst          353                       # number of ReadCleanReq accesses(hits+misses)
system.l2.ReadCleanReq_accesses::total            353                       # number of ReadCleanReq accesses(hits+misses)
system.l2.ReadCleanReq_miss_rate::.cpu.inst     0.940510                       # miss rate for ReadCleanReq accesses
system.l2.ReadCleanReq_miss_rate::total      0.940510                       # miss rate for ReadCleanReq accesses
system.l2.ReadCleanReq_avg_miss_latency::.cpu.inst 101777.108434                       # average ReadCleanReq miss latency
system.l2.ReadCleanReq_avg_miss_latency::total 101777.108434                       # average ReadCleanReq miss latency
system.l2.ReadCleanReq_mshr_misses::.cpu.inst          332                       # number of ReadCleanReq MSHR misses
system.l2.ReadCleanReq_mshr_misses::total          332                       # number of ReadCleanReq MSHR misses
system.l2.ReadCleanReq_mshr_miss_latency::.cpu.inst     27150000                       # number of ReadCleanReq MSHR miss cycles
system.l2.ReadCleanReq_mshr_miss_latency::total     27150000                       # number of ReadCleanReq MSHR miss cycles
system.l2.ReadCleanReq_mshr_miss_rate::.cpu.inst     0.940510                       # mshr miss rate for ReadCleanReq accesses
system.l2.ReadCleanReq_mshr_miss_rate::total     0.940510                       # mshr miss rate for ReadCleanReq accesses
system.l2.ReadCleanReq_avg_mshr_miss_latency::.cpu.inst 81777.108434                       # average ReadCleanReq mshr miss latency
system.l2.ReadCleanReq_avg_mshr_miss_latency::total 81777.108434                       # average ReadCleanReq mshr miss latency
system.l2.ReadSharedReq_hits::.cpu.data         12707                       # number of ReadSharedReq hits
system.l2.ReadSharedReq_hits::total             12707                       # number of ReadSharedReq hits
system.l2.ReadSharedReq_misses::.cpu.data         2447                       # number of ReadSharedReq misses
system.l2.ReadSharedReq_misses::total            2447                       # number of ReadSharedReq misses
system.l2.ReadSharedReq_miss_latency::.cpu.data    280717000                       # number of ReadSharedReq miss cycles
system.l2.ReadSharedReq_miss_latency::total    280717000                       # number of ReadSharedReq miss cycles
system.l2.ReadSharedReq_accesses::.cpu.data        15154                       # number of ReadSharedReq accesses(hits+misses)
system.l2.ReadSharedReq_accesses::total         15154                       # number of ReadSharedReq accesses(hits+misses)
system.l2.ReadSharedReq_miss_rate::.cpu.data     0.161476                       # miss rate for ReadSharedReq accesses
system.l2.ReadSharedReq_miss_rate::total     0.161476                       # miss rate for ReadSharedReq accesses
system.l2.ReadSharedReq_avg_miss_latency::.cpu.data 114718.839395                       # average ReadSharedReq miss latency
system.l2.ReadSharedReq_avg_miss_latency::total 114718.839395                       # average ReadSharedReq miss latency
system.l2.ReadSharedReq_mshr_hits::.cpu.data            3                       # number of ReadSharedReq MSHR hits
system.l2.ReadSharedReq_mshr_hits::total            3                       # number of ReadSharedReq MSHR hits
system.l2.ReadSharedReq_mshr_misses::.cpu.data         2444                       # number of ReadSharedReq MSHR misses
system.l2.ReadSharedReq_mshr_misses::total         2444                       # number of ReadSharedReq MSHR misses
system.l2.ReadSharedReq_mshr_miss_latency::.cpu.data    231563000                       # number of ReadSharedReq MSHR miss cycles
system.l2.ReadSharedReq_mshr_miss_latency::total    231563000                       # number of ReadSharedReq MSHR miss cycles
system.l2.ReadSharedReq_mshr_miss_rate::.cpu.data     0.161278                       # mshr miss rate for ReadSharedReq accesses
system.l2.ReadSharedReq_mshr_miss_rate::total     0.161278                       # mshr miss rate for ReadSharedReq accesses
system.l2.ReadSharedReq_avg_mshr_miss_latency::.cpu.data 94747.545008                       # average ReadSharedReq mshr miss latency
system.l2.ReadSharedReq_avg_mshr_miss_latency::total 94747.545008                       # average ReadSharedReq mshr miss latency
system.l2.tags.pwrStateResidencyTicks::UNDEFINED 107455849000                       # Cumulative time (in ticks) in various power states
system.l2.tags.tagsinuse                  7804.368074                       # Cycle average of tags in use
system.l2.tags.total_refs                       68186                       # Total number of references to valid blocks.
system.l2.tags.sampled_refs                     21764                       # Sample count of references to valid blocks.
system.l2.tags.avg_refs                      3.132972                       # Average number of references to valid blocks.
system.l2.tags.warmup_cycle                     92000                       # Cycle when the warmup percentage was hit.
system.l2.tags.occ_blocks::.writebacks       3.750127                       # Average occupied blocks per requestor
system.l2.tags.occ_blocks::.cpu.inst        31.971497                       # Average occupied blocks per requestor
system.l2.tags.occ_blocks::.cpu.data      7768.646449                       # Average occupied blocks per requestor
system.l2.tags.occ_percent::.writebacks      0.000458                       # Average percentage of cache occupancy
system.l2.tags.occ_percent::.cpu.inst        0.003903                       # Average percentage of cache occupancy
system.l2.tags.occ_percent::.cpu.data        0.948321                       # Average percentage of cache occupancy
system.l2.tags.occ_percent::total            0.952682                       # Average percentage of cache occupancy
system.l2.tags.occ_task_id_blocks::1024          8192                       # Occupied blocks per task id
system.l2.tags.age_task_id_blocks_1024::0            2                       # Occupied blocks per task id
system.l2.tags.age_task_id_blocks_1024::1            8                       # Occupied blocks per task id
system.l2.tags.age_task_id_blocks_1024::2          119                       # Occupied blocks per task id
system.l2.tags.age_task_id_blocks_1024::3         1255                       # Occupied blocks per task id
system.l2.tags.age_task_id_blocks_1024::4         6808                       # Occupied blocks per task id
system.l2.tags.occ_task_id_percent::1024            1                       # Percentage of cache occupancy per task id
system.l2.tags.tag_accesses                    567316                       # Number of tag accesses
system.l2.tags.data_accesses                   567316                       # Number of data accesses
system.cpu_voltage_domain.voltage                   1                       # Voltage in Volts
system.mem_ctrls.pwrStateResidencyTicks::UNDEFINED 107455849000                       # Cumulative time (in ticks) in various power states
system.mem_ctrls.bytes_read::.cpu.inst          42496                       # Number of bytes read from this memory
system.mem_ctrls.bytes_read::.cpu.data        2741760                       # Number of bytes read from this memory
system.mem_ctrls.bytes_read::total            2784256                       # Number of bytes read from this memory
system.mem_ctrls.bytes_inst_read::.cpu.inst        42496                       # Number of instructions bytes read from this memory
system.mem_ctrls.bytes_inst_read::total         42496                       # Number of instructions bytes read from this memory
system.mem_ctrls.bytes_written::.writebacks      1685504                       # Number of bytes written to this memory
system.mem_ctrls.bytes_written::total         1685504                       # Number of bytes written to this memory
system.mem_ctrls.num_reads::.cpu.inst             332                       # Number of read requests responded to by this memory
system.mem_ctrls.num_reads::.cpu.data           21420                       # Number of read requests responded to by this memory
system.mem_ctrls.num_reads::total               21752                       # Number of read requests responded to by this memory
system.mem_ctrls.num_writes::.writebacks        13168                       # Number of write requests responded to by this memory
system.mem_ctrls.num_writes::total              13168                       # Number of write requests responded to by this memory
system.mem_ctrls.bw_read::.cpu.inst            395474                       # Total read bandwidth from this memory (bytes/s)
system.mem_ctrls.bw_read::.cpu.data          25515223                       # Total read bandwidth from this memory (bytes/s)
system.mem_ctrls.bw_read::total              25910698                       # Total read bandwidth from this memory (bytes/s)
system.mem_ctrls.bw_inst_read::.cpu.inst       395474                       # Instruction read bandwidth from this memory (bytes/s)
system.mem_ctrls.bw_inst_read::total           395474                       # Instruction read bandwidth from this memory (bytes/s)
system.mem_ctrls.bw_write::.writebacks       15685549                       # Write bandwidth from this memory (bytes/s)
system.mem_ctrls.bw_write::total             15685549                       # Write bandwidth from this memory (bytes/s)
system.mem_ctrls.bw_total::.writebacks       15685549                       # Total bandwidth to/from this memory (bytes/s)
system.mem_ctrls.bw_total::.cpu.inst           395474                       # Total bandwidth to/from this memory (bytes/s)
system.mem_ctrls.bw_total::.cpu.data         25515223                       # Total bandwidth to/from this memory (bytes/s)
system.mem_ctrls.bw_total::total             41596247                       # Total bandwidth to/from this memory (bytes/s)
system.mem_ctrls.avgPriority_.writebacks::samples     26336.00                       # Average QoS priority value for accepted requests
system.mem_ctrls.avgPriority_.cpu.inst::samples       664.00                       # Average QoS priority value for accepted requests
system.mem_ctrls.avgPriority_.cpu.data::samples     42830.00                       # Average QoS priority value for accepted requests
system.mem_ctrls.priorityMinLatency      0.000000018750                       # per QoS priority minimum request to response latency (s)
system.mem_ctrls.priorityMaxLatency      0.002959520500                       # per QoS priority maximum request to response latency (s)
system.mem_ctrls.numReadWriteTurnArounds         1458                       # Number of turnarounds from READ to WRITE
system.mem_ctrls.numWriteReadTurnArounds         1458                       # Number of turnarounds from WRITE to READ
system.mem_ctrls.numStayReadState              105867                       # Number of times bus staying in READ state
system.mem_ctrls.numStayWriteState              24896                       # Number of times bus staying in WRITE state
system.mem_ctrls.readReqs                       21752                       # Number of read requests accepted
system.mem_ctrls.writeReqs                      13168                       # Number of write requests accepted
system.mem_ctrls.readBursts                     43504                       # Number of DRAM read bursts, including those serviced by the write queue
system.mem_ctrls.writeBursts                    26336                       # Number of DRAM write bursts, including those merged in the write queue
system.mem_ctrls.servicedByWrQ                     10                       # Number of DRAM read bursts serviced by the write queue
system.mem_ctrls.mergedWrBursts                     0                       # Number of DRAM write bursts merged with an existing one
system.mem_ctrls.neitherReadNorWriteReqs            0                       # Number of requests that are neither read nor write
system.mem_ctrls.perBankRdBursts::0              2634                       # Per bank write bursts
system.mem_ctrls.perBankRdBursts::1              2630                       # Per bank write bursts
system.mem_ctrls.perBankRdBursts::2              2834                       # Per bank write bursts
system.mem_ctrls.perBankRdBursts::3              3060                       # Per bank write bursts
system.mem_ctrls.perBankRdBursts::4              2836                       # Per bank write bursts
system.mem_ctrls.perBankRdBursts::5              2810                       # Per bank write bursts
system.mem_ctrls.perBankRdBursts::6              2756                       # Per bank write bursts
system.mem_ctrls.perBankRdBursts::7              2790                       # Per bank write bursts
system.mem_ctrls.perBankRdBursts::8              2776                       # Per bank write bursts
system.mem_ctrls.perBankRdBursts::9              2600                       # Per bank write bursts
system.mem_ctrls.perBankRdBursts::10             2688                       # Per bank write bursts
system.mem_ctrls.perBankRdBursts::11             2626                       # Per bank write bursts
system.mem_ctrls.perBankRdBursts::12             2586                       # Per bank write bursts
system.mem_ctrls.perBankRdBursts::13             2634                       # Per bank write bursts
system.mem_ctrls.perBankRdBursts::14             2610                       # Per bank write bursts
system.mem_ctrls.perBankRdBursts::15             2624                       # Per bank write bursts
system.mem_ctrls.perBankWrBursts::0              1548                       # Per bank write bursts
system.mem_ctrls.perBankWrBursts::1              1568                       # Per bank write bursts
system.mem_ctrls.perBankWrBursts::2              1794                       # Per bank write bursts
system.mem_ctrls.perBankWrBursts::3              1976                       # Per bank write bursts
system.mem_ctrls.perBankWrBursts::4              1704                       # Per bank write bursts
system.mem_ctrls.perBankWrBursts::5              1718                       # Per bank write bursts
system.mem_ctrls.perBankWrBursts::6              1690                       # Per bank write bursts
system.mem_ctrls.perBankWrBursts::7              1674                       # Per bank write bursts
system.mem_ctrls.perBankWrBursts::8              1657                       # Per bank write bursts
system.mem_ctrls.perBankWrBursts::9              1542                       # Per bank write bursts
system.mem_ctrls.perBankWrBursts::10             1574                       # Per bank write bursts
system.mem_ctrls.perBankWrBursts::11             1572                       # Per bank write bursts
system.mem_ctrls.perBankWrBursts::12             1562                       # Per bank write bursts
system.mem_ctrls.perBankWrBursts::13             1584                       # Per bank write bursts
system.mem_ctrls.perBankWrBursts::14             1572                       # Per bank write bursts
system.mem_ctrls.perBankWrBursts::15             1574                       # Per bank write bursts
system.mem_ctrls.avgRdQLen                       2.03                       # Average read queue length when enqueuing
system.mem_ctrls.avgWrQLen                      22.90                       # Average write queue length when enqueuing
system.mem_ctrls.totQLat                    753514250                       # Total ticks spent queuing
system.mem_ctrls.totBusLat                  217470000                       # Total ticks spent in databus transfers
system.mem_ctrls.totMemAccLat              1569026750                       # Total ticks spent from burst creation until serviced by the DRAM
system.mem_ctrls.avgQLat                     17324.56                       # Average queueing delay per DRAM burst
system.mem_ctrls.avgBusLat                    5000.00                       # Average bus latency per DRAM burst
system.mem_ctrls.avgMemAccLat                36074.56                       # Average memory access latency per DRAM burst
system.mem_ctrls.numRdRetry                         0                       # Number of times read queue was full causing retry
system.mem_ctrls.numWrRetry                         0                       # Number of times write queue was full causing retry
system.mem_ctrls.readRowHits                    26230                       # Number of row buffer hits during reads
system.mem_ctrls.writeRowHits                   20592                       # Number of row buffer hits during writes
system.mem_ctrls.readRowHitRate                 60.31                       # Row buffer hit rate for reads
system.mem_ctrls.writeRowHitRate                78.19                       # Row buffer hit rate for writes
system.mem_ctrls.readPktSize::0                     0                       # Read request sizes (log2)
system.mem_ctrls.readPktSize::1                     0                       # Read request sizes (log2)
system.mem_ctrls.readPktSize::2                     0                       # Read request sizes (log2)
system.mem_ctrls.readPktSize::3                     0                       # Read request sizes (log2)
system.mem_ctrls.readPktSize::4                     0                       # Read request sizes (log2)
system.mem_ctrls.readPktSize::5                     0                       # Read request sizes (log2)
system.mem_ctrls.readPktSize::6                 43504                       # Read request sizes (log2)
system.mem_ctrls.writePktSize::0                    0                       # Write request sizes (log2)
system.mem_ctrls.writePktSize::1                    0                       # Write request sizes (log2)
system.mem_ctrls.writePktSize::2                    0                       # Write request sizes (log2)
system.mem_ctrls.writePktSize::3                    0                       # Write request sizes (log2)
system.mem_ctrls.writePktSize::4                    0                       # Write request sizes (log2)
system.mem_ctrls.writePktSize::5                    0                       # Write request sizes (log2)
system.mem_ctrls.writePktSize::6                26336                       # Write request sizes (log2)
system.mem_ctrls.rdQLenPdf::0                   21418                       # What read queue length does an incoming req see
system.mem_ctrls.rdQLenPdf::1                   21423                       # What read queue length does an incoming req see
system.mem_ctrls.rdQLenPdf::2                     323                       # What read queue length does an incoming req see
system.mem_ctrls.rdQLenPdf::3                     320                       # What read queue length does an incoming req see
system.mem_ctrls.rdQLenPdf::4                       6                       # What read queue length does an incoming req see
system.mem_ctrls.rdQLenPdf::5                       4                       # What read queue length does an incoming req see
system.mem_ctrls.rdQLenPdf::6                       0                       # What read queue length does an incoming req see
system.mem_ctrls.rdQLenPdf::7                       0                       # What read queue length does an incoming req see
system.mem_ctrls.rdQLenPdf::8                       0                       # What read queue length does an incoming req see
system.mem_ctrls.rdQLenPdf::9                       0                       # What read queue length does an incoming req see
system.mem_ctrls.rdQLenPdf::10                      0                       # What read queue length does an incoming req see
system.mem_ctrls.rdQLenPdf::11                      0                       # What read queue length does an incoming req see
system.mem_ctrls.rdQLenPdf::12                      0                       # What read queue length does an incoming req see
system.mem_ctrls.rdQLenPdf::13                      0                       # What read queue length does an incoming req see
system.mem_ctrls.rdQLenPdf::14                      0                       # What read queue length does an incoming req see
system.mem_ctrls.rdQLenPdf::15                      0                       # What read queue length does an incoming req see
system.mem_ctrls.rdQLenPdf::16                      0                       # What read queue length does an incoming req see
system.mem_ctrls.rdQLenPdf::17                      0                       # What read queue length does an incoming req see
system.mem_ctrls.rdQLenPdf::18                      0                       # What read queue length does an incoming req see
system.mem_ctrls.rdQLenPdf::19                      0                       # What read queue length does an incoming req see
system.mem_ctrls.rdQLenPdf::20                      0                       # What read queue length does an incoming req see
system.mem_ctrls.rdQLenPdf::21                      0                       # What read queue length does an incoming req see
system.mem_ctrls.rdQLenPdf::22                      0                       # What read queue length does an incoming req see
system.mem_ctrls.rdQLenPdf::23                      0                       # What read queue length does an incoming req see
system.mem_ctrls.rdQLenPdf::24                      0                       # What read queue length does an incoming req see
system.mem_ctrls.rdQLenPdf::25                      0                       # What read queue length does an incoming req see
system.mem_ctrls.rdQLenPdf::26                      0                       # What read queue length does an incoming req see
system.mem_ctrls.rdQLenPdf::27                      0                       # What read queue length does an incoming req see
system.mem_ctrls.rdQLenPdf::28                      0                       # What read queue length does an incoming req see
system.mem_ctrls.rdQLenPdf::29                      0                       # What read queue length does an incoming req see
system.mem_ctrls.rdQLenPdf::30                      0                       # What read queue length does an incoming req see
system.mem_ctrls.rdQLenPdf::31                      0                       # What read queue length does an incoming req see
system.mem_ctrls.wrQLenPdf::0                       1                       # What write queue length does an incoming req see
system.mem_ctrls.wrQLenPdf::1                       1                       # What write queue length does an incoming req see
system.mem_ctrls.wrQLenPdf::2                       1                       # What write queue length does an incoming req see
system.mem_ctrls.wrQLenPdf::3                       1                       # What write queue length does an incoming req see
system.mem_ctrls.wrQLenPdf::4                       1                       # What write queue length does an incoming req see
system.mem_ctrls.wrQLenPdf::5                       1                       # What write queue length does an incoming req see
system.mem_ctrls.wrQLenPdf::6                       1                       # What write queue length does an incoming req see
system.mem_ctrls.wrQLenPdf::7                       1                       # What write queue length does an incoming req see
system.mem_ctrls.wrQLenPdf::8                       1                       # What write queue length does an incoming req see
system.mem_ctrls.wrQLenPdf::9                       1                       # What write queue length does an incoming req see
system.mem_ctrls.wrQLenPdf::10                      1                       # What write queue length does an incoming req see
system.mem_ctrls.wrQLenPdf::11                      1                       # What write queue length does an incoming req see
system.mem_ctrls.wrQLenPdf::12                      1                       # What write queue length does an incoming req see
system.mem_ctrls.wrQLenPdf::13                      1                       # What write queue length does an incoming req see
system.mem_ctrls.wrQLenPdf::14                      1                       # What write queue length does an incoming req see
system.mem_ctrls.wrQLenPdf::15                   1431                       # What write queue length does an incoming req see
system.mem_ctrls.wrQLenPdf::16                   1431                       # What write queue length does an incoming req see
system.mem_ctrls.wrQLenPdf::17                   1458                       # What write queue length does an incoming req see
system.mem_ctrls.wrQLenPdf::18                   1460                       # What write queue length does an incoming req see
system.mem_ctrls.wrQLenPdf::19                   1461                       # What write queue length does an incoming req see
system.mem_ctrls.wrQLenPdf::20                   1459                       # What write queue length does an incoming req see
system.mem_ctrls.wrQLenPdf::21                   1459                       # What write queue length does an incoming req see
system.mem_ctrls.wrQLenPdf::22                   1474                       # What write queue length does an incoming req see
system.mem_ctrls.wrQLenPdf::23                   1492                       # What write queue length does an incoming req see
system.mem_ctrls.wrQLenPdf::24                   1478                       # What write queue length does an incoming req see
system.mem_ctrls.wrQLenPdf::25                   1462                       # What write queue length does an incoming req see
system.mem_ctrls.wrQLenPdf::26                   1463                       # What write queue length does an incoming req see
system.mem_ctrls.wrQLenPdf::27                   1472                       # What write queue length does an incoming req see
system.mem_ctrls.wrQLenPdf::28                   1477                       # What write queue length does an incoming req see
system.mem_ctrls.wrQLenPdf::29                   1465                       # What write queue length does an incoming req see
system.mem_ctrls.wrQLenPdf::30                   1459                       # What write queue length does an incoming req see
system.mem_ctrls.wrQLenPdf::31                   1459                       # What write queue length does an incoming req see
system.mem_ctrls.wrQLenPdf::32                   1458                       # What write queue length does an incoming req see
system.mem_ctrls.wrQLenPdf::33                      2                       # What write queue length does an incoming req see
system.mem_ctrls.wrQLenPdf::34                      1                       # What write queue length does an incoming req see
system.mem_ctrls.wrQLenPdf::35                      0                       # What write queue length does an incoming req see
system.mem_ctrls.wrQLenPdf::36                      0                       # What write queue length does an incoming req see
system.mem_ctrls.wrQLenPdf::37                      0                       # What write queue length does an incoming req see
system.mem_ctrls.wrQLenPdf::38                      0                       # What write queue length does an incoming req see
system.mem_ctrls.wrQLenPdf::39                      0                       # What write queue length does an incoming req see
system.mem_ctrls.wrQLenPdf::40                      0                       # What write queue length does an incoming req see
system.mem_ctrls.wrQLenPdf::41                      0                       # What write queue length does an incoming req see
system.mem_ctrls.wrQLenPdf::42                      0                       # What write queue length does an incoming req see
system.mem_ctrls.wrQLenPdf::43                      0                       # What write queue length does an incoming req see
system.mem_ctrls.wrQLenPdf::44                      0                       # What write queue length does an incoming req see
system.mem_ctrls.wrQLenPdf::45                      0                       # What write queue length does an incoming req see
system.mem_ctrls.wrQLenPdf::46                      0                       # What write queue length does an incoming req see
system.mem_ctrls.wrQLenPdf::47                      0                       # What write queue length does an incoming req see
system.mem_ctrls.wrQLenPdf::48                      0                       # What write queue length does an incoming req see
system.mem_ctrls.wrQLenPdf::49                      0                       # What write queue length does an incoming req see
system.mem_ctrls.wrQLenPdf::50                      0                       # What write queue length does an incoming req see
system.mem_ctrls.wrQLenPdf::51                      0                       # What write queue length does an incoming req see
system.mem_ctrls.wrQLenPdf::52                      0                       # What write queue length does an incoming req see
system.mem_ctrls.wrQLenPdf::53                      0                       # What write queue length does an incoming req see
system.mem_ctrls.wrQLenPdf::54                      0                       # What write queue length does an incoming req see
system.mem_ctrls.wrQLenPdf::55                      0                       # What write queue length does an incoming req see
system.mem_ctrls.wrQLenPdf::56                      0                       # What write queue length does an incoming req see
system.mem_ctrls.wrQLenPdf::57                      0                       # What write queue length does an incoming req see
system.mem_ctrls.wrQLenPdf::58                      0                       # What write queue length does an incoming req see
system.mem_ctrls.wrQLenPdf::59                      0                       # What write queue length does an incoming req see
system.mem_ctrls.wrQLenPdf::60                      0                       # What write queue length does an incoming req see
system.mem_ctrls.wrQLenPdf::61                      0                       # What write queue length does an incoming req see
system.mem_ctrls.wrQLenPdf::62                      0                       # What write queue length does an incoming req see
system.mem_ctrls.wrQLenPdf::63                      0                       # What write queue length does an incoming req see
system.mem_ctrls.bytesPerActivate::samples        22980                       # Bytes accessed per row activation
system.mem_ctrls.bytesPerActivate::mean    194.397911                       # Bytes accessed per row activation
system.mem_ctrls.bytesPerActivate::gmean   163.522723                       # Bytes accessed per row activation
system.mem_ctrls.bytesPerActivate::stdev   158.620410                       # Bytes accessed per row activation
system.mem_ctrls.bytesPerActivate::0-127          535      2.33%      2.33% # Bytes accessed per row activation
system.mem_ctrls.bytesPerActivate::128-255        16670     72.54%     74.87% # Bytes accessed per row activation
system.mem_ctrls.bytesPerActivate::256-383         3251     14.15%     89.02% # Bytes accessed per row activation
system.mem_ctrls.bytesPerActivate::384-511         1275      5.55%     94.56% # Bytes accessed per row activation
system.mem_ctrls.bytesPerActivate::512-639          378      1.64%     96.21% # Bytes accessed per row activation
system.mem_ctrls.bytesPerActivate::640-767          259      1.13%     97.34% # Bytes accessed per row activation
system.mem_ctrls.bytesPerActivate::768-895          206      0.90%     98.23% # Bytes accessed per row activation
system.mem_ctrls.bytesPerActivate::896-1023          143      0.62%     98.86% # Bytes accessed per row activation
system.mem_ctrls.bytesPerActivate::1024-1151          263      1.14%    100.00% # Bytes accessed per row activation
system.mem_ctrls.bytesPerActivate::total        22980                       # Bytes accessed per row activation
system.mem_ctrls.rdPerTurnAround::samples         1458                       # Reads before turning the bus around for writes
system.mem_ctrls.rdPerTurnAround::mean      29.823045                       # Reads before turning the bus around for writes
system.mem_ctrls.rdPerTurnAround::gmean     18.591014                       # Reads before turning the bus around for writes
system.mem_ctrls.rdPerTurnAround::stdev    380.203138                       # Reads before turning the bus around for writes
system.mem_ctrls.rdPerTurnAround::0-511          1456     99.86%     99.86% # Reads before turning the bus around for writes
system.mem_ctrls.rdPerTurnAround::1536-2047            1      0.07%     99.93% # Reads before turning the bus around for writes
system.mem_ctrls.rdPerTurnAround::14336-14847            1      0.07%    100.00% # Reads before turning the bus around for writes
system.mem_ctrls.rdPerTurnAround::total          1458                       # Reads before turning the bus around for writes
system.mem_ctrls.wrPerTurnAround::samples         1458                       # Writes before turning the bus around for reads
[...]
system.cpu.icache.ReadReq_avg_miss_latency::total 102090.651558                       # average ReadReq miss latency
system.cpu.icache.ReadReq_mshr_misses::.cpu.inst          353                       # number of ReadReq MSHR misses
system.cpu.icache.ReadReq_mshr_misses::total          353                       # number of ReadReq MSHR misses
system.cpu.icache.ReadReq_mshr_miss_latency::.cpu.inst     35332000                       # number of ReadReq MSHR miss cycles
system.cpu.icache.ReadReq_mshr_miss_latency::total     35332000                       # number of ReadReq MSHR miss cycles
system.cpu.icache.ReadReq_mshr_miss_rate::.cpu.inst     0.000014                       # mshr miss rate for ReadReq accesses
system.cpu.icache.ReadReq_mshr_miss_rate::total     0.000014                       # mshr miss rate for ReadReq accesses
system.cpu.icache.ReadReq_avg_mshr_miss_latency::.cpu.inst 100090.651558                       # average ReadReq mshr miss latency
system.cpu.icache.ReadReq_avg_mshr_miss_latency::total 100090.651558                       # average ReadReq mshr miss latency
system.cpu.icache.tags.pwrStateResidencyTicks::UNDEFINED 107455849000                       # Cumulative time (in ticks) in various power states
system.cpu.icache.tags.tagsinuse           298.796029                       # Cycle average of tags in use
system.cpu.icache.tags.total_refs            25655506                       # Total number of references to valid blocks.
system.cpu.icache.tags.sampled_refs               353                       # Sample count of references to valid blocks.
system.cpu.icache.tags.avg_refs          72678.487252                       # Average number of references to valid blocks.
system.cpu.icache.tags.warmup_cycle            113000                       # Cycle when the warmup percentage was hit.
system.cpu.icache.tags.occ_blocks::.cpu.inst   298.796029                       # Average occupied blocks per requestor
system.cpu.icache.tags.occ_percent::.cpu.inst     0.583586                       # Average percentage of cache occupancy
system.cpu.icache.tags.occ_percent::total     0.583586                       # Average percentage of cache occupancy
system.cpu.icache.tags.occ_task_id_blocks::1024          299                       # Occupied blocks per task id
system.cpu.icache.tags.age_task_id_blocks_1024::4          299                       # Occupied blocks per task id
system.cpu.icache.tags.occ_task_id_percent::1024     0.583984                       # Percentage of cache occupancy per task id
system.cpu.icache.tags.tag_accesses          51311365                       # Number of tag accesses
system.cpu.icache.tags.data_accesses         51311365                       # Number of data accesses
system.cpu.dtb.walker.pwrStateResidencyTicks::UNDEFINED 107455849000                       # Cumulative time (in ticks) in various power states
system.cpu.dtb.stage2_mmu.stage2_tlb.walker.pwrStateResidencyTicks::UNDEFINED 107455849000                       # Cumulative time (in ticks) in various power states
system.cpu.dcache.pwrStateResidencyTicks::UNDEFINED 107455849000                       # Cumulative time (in ticks) in various power states
system.cpu.dcache.demand_hits::.cpu.data     34994308                       # number of demand (read+write) hits
system.cpu.dcache.demand_hits::total         34994308                       # number of demand (read+write) hits
system.cpu.dcache.overall_hits::.cpu.data     34997404                       # number of overall hits
system.cpu.dcache.overall_hits::total        34997404                       # number of overall hits
system.cpu.dcache.demand_misses::.cpu.data        44694                       # number of demand (read+write) misses
system.cpu.dcache.demand_misses::total          44694                       # number of demand (read+write) misses
system.cpu.dcache.overall_misses::.cpu.data        44727                       # number of overall misses
system.cpu.dcache.overall_misses::total         44727                       # number of overall misses
system.cpu.dcache.demand_miss_latency::.cpu.data   3543890000                       # number of demand (read+write) miss cycles
system.cpu.dcache.demand_miss_latency::total   3543890000                       # number of demand (read+write) miss cycles
system.cpu.dcache.overall_miss_latency::.cpu.data   3543890000                       # number of overall miss cycles
system.cpu.dcache.overall_miss_latency::total   3543890000                       # number of overall miss cycles
system.cpu.dcache.demand_accesses::.cpu.data     35039002                       # number of demand (read+write) accesses
system.cpu.dcache.demand_accesses::total     35039002                       # number of demand (read+write) accesses
system.cpu.dcache.overall_accesses::.cpu.data     35042131                       # number of overall (read+write) accesses
system.cpu.dcache.overall_accesses::total     35042131                       # number of overall (read+write) accesses
system.cpu.dcache.demand_miss_rate::.cpu.data     0.001276                       # miss rate for demand accesses
system.cpu.dcache.demand_miss_rate::total     0.001276                       # miss rate for demand accesses
system.cpu.dcache.overall_miss_rate::.cpu.data     0.001276                       # miss rate for overall accesses
system.cpu.dcache.overall_miss_rate::total     0.001276                       # miss rate for overall accesses
system.cpu.dcache.demand_avg_miss_latency::.cpu.data 79292.298743                       # average overall miss latency
system.cpu.dcache.demand_avg_miss_latency::total 79292.298743                       # average overall miss latency
system.cpu.dcache.overall_avg_miss_latency::.cpu.data 79233.796141                       # average overall miss latency
system.cpu.dcache.overall_avg_miss_latency::total 79233.796141                       # average overall miss latency
system.cpu.dcache.blocked_cycles::no_mshrs            0                       # number of cycles access was blocked
system.cpu.dcache.blocked_cycles::no_targets            0                       # number of cycles access was blocked
system.cpu.dcache.blocked::no_mshrs                 0                       # number of cycles access was blocked
system.cpu.dcache.blocked::no_targets               0                       # number of cycles access was blocked
system.cpu.dcache.avg_blocked_cycles::no_mshrs          nan                       # average number of cycles each access was blocked
system.cpu.dcache.avg_blocked_cycles::no_targets          nan                       # average number of cycles each access was blocked
system.cpu.dcache.writebacks::.writebacks        31320                       # number of writebacks
system.cpu.dcache.writebacks::total             31320                       # number of writebacks
system.cpu.dcache.demand_mshr_hits::.cpu.data        10548                       # number of demand (read+write) MSHR hits
system.cpu.dcache.demand_mshr_hits::total        10548                       # number of demand (read+write) MSHR hits
system.cpu.dcache.overall_mshr_hits::.cpu.data        10548                       # number of overall MSHR hits
system.cpu.dcache.overall_mshr_hits::total        10548                       # number of overall MSHR hits
system.cpu.dcache.demand_mshr_misses::.cpu.data        34146                       # number of demand (read+write) MSHR misses
system.cpu.dcache.demand_mshr_misses::total        34146                       # number of demand (read+write) MSHR misses
system.cpu.dcache.overall_mshr_misses::.cpu.data        34164                       # number of overall MSHR misses
system.cpu.dcache.overall_mshr_misses::total        34164                       # number of overall MSHR misses
system.cpu.dcache.demand_mshr_miss_latency::.cpu.data   2728468000                       # number of demand (read+write) MSHR miss cycles
system.cpu.dcache.demand_mshr_miss_latency::total   2728468000                       # number of demand (read+write) MSHR miss cycles
system.cpu.dcache.overall_mshr_miss_latency::.cpu.data   2729817000                       # number of overall MSHR miss cycles
system.cpu.dcache.overall_mshr_miss_latency::total   2729817000                       # number of overall MSHR miss cycles
system.cpu.dcache.demand_mshr_miss_rate::.cpu.data     0.000975                       # mshr miss rate for demand accesses
system.cpu.dcache.demand_mshr_miss_rate::total     0.000975                       # mshr miss rate for demand accesses
system.cpu.dcache.overall_mshr_miss_rate::.cpu.data     0.000975                       # mshr miss rate for overall accesses
system.cpu.dcache.overall_mshr_miss_rate::total     0.000975                       # mshr miss rate for overall accesses
system.cpu.dcache.demand_avg_mshr_miss_latency::.cpu.data 79905.933345                       # average overall mshr miss latency
system.cpu.dcache.demand_avg_mshr_miss_latency::total 79905.933345                       # average overall mshr miss latency
system.cpu.dcache.overall_avg_mshr_miss_latency::.cpu.data 79903.319283                       # average overall mshr miss latency
system.cpu.dcache.overall_avg_mshr_miss_latency::total 79903.319283                       # average overall mshr miss latency
system.cpu.dcache.replacements                  33652                       # number of replacements
system.cpu.dcache.ReadReq_hits::.cpu.data     20840213                       # number of ReadReq hits
system.cpu.dcache.ReadReq_hits::total        20840213                       # number of ReadReq hits
system.cpu.dcache.ReadReq_misses::.cpu.data        17392                       # number of ReadReq misses
system.cpu.dcache.ReadReq_misses::total         17392                       # number of ReadReq misses
system.cpu.dcache.ReadReq_miss_latency::.cpu.data    694475000                       # number of ReadReq miss cycles
system.cpu.dcache.ReadReq_miss_latency::total    694475000                       # number of ReadReq miss cycles
system.cpu.dcache.ReadReq_accesses::.cpu.data     20857605                       # number of ReadReq accesses(hits+misses)
system.cpu.dcache.ReadReq_accesses::total     20857605                       # number of ReadReq accesses(hits+misses)
system.cpu.dcache.ReadReq_miss_rate::.cpu.data     0.000834                       # miss rate for ReadReq accesses
system.cpu.dcache.ReadReq_miss_rate::total     0.000834                       # miss rate for ReadReq accesses
system.cpu.dcache.ReadReq_avg_miss_latency::.cpu.data 39930.715271                       # average ReadReq miss latency
system.cpu.dcache.ReadReq_avg_miss_latency::total 39930.715271                       # average ReadReq miss latency
system.cpu.dcache.ReadReq_mshr_hits::.cpu.data         2256                       # number of ReadReq MSHR hits
system.cpu.dcache.ReadReq_mshr_hits::total         2256                       # number of ReadReq MSHR hits
system.cpu.dcache.ReadReq_mshr_misses::.cpu.data        15136                       # number of ReadReq MSHR misses
system.cpu.dcache.ReadReq_mshr_misses::total        15136                       # number of ReadReq MSHR misses
system.cpu.dcache.ReadReq_mshr_miss_latency::.cpu.data    591711000                       # number of ReadReq MSHR miss cycles
system.cpu.dcache.ReadReq_mshr_miss_latency::total    591711000                       # number of ReadReq MSHR miss cycles
system.cpu.dcache.ReadReq_mshr_miss_rate::.cpu.data     0.000726                       # mshr miss rate for ReadReq accesses
system.cpu.dcache.ReadReq_mshr_miss_rate::total     0.000726                       # mshr miss rate for ReadReq accesses
system.cpu.dcache.ReadReq_avg_mshr_miss_latency::.cpu.data 39092.957188                       # average ReadReq mshr miss latency
system.cpu.dcache.ReadReq_avg_mshr_miss_latency::total 39092.957188                       # average ReadReq mshr miss latency
system.cpu.dcache.WriteReq_hits::.cpu.data     14154095                       # number of WriteReq hits
system.cpu.dcache.WriteReq_hits::total       14154095                       # number of WriteReq hits
system.cpu.dcache.WriteReq_misses::.cpu.data        27302                       # number of WriteReq misses
system.cpu.dcache.WriteReq_misses::total        27302                       # number of WriteReq misses
system.cpu.dcache.WriteReq_miss_latency::.cpu.data   2849415000                       # number of WriteReq miss cycles
system.cpu.dcache.WriteReq_miss_latency::total   2849415000                       # number of WriteReq miss cycles
system.cpu.dcache.WriteReq_accesses::.cpu.data     14181397                       # number of WriteReq accesses(hits+misses)
system.cpu.dcache.WriteReq_accesses::total     14181397                       # number of WriteReq accesses(hits+misses)
system.cpu.dcache.WriteReq_miss_rate::.cpu.data     0.001925                       # miss rate for WriteReq accesses
system.cpu.dcache.WriteReq_miss_rate::total     0.001925                       # miss rate for WriteReq accesses
system.cpu.dcache.WriteReq_avg_miss_latency::.cpu.data 104366.529925                       # average WriteReq miss latency
system.cpu.dcache.WriteReq_avg_miss_latency::total 104366.529925                       # average WriteReq miss latency
system.cpu.dcache.WriteReq_mshr_hits::.cpu.data         8292                       # number of WriteReq MSHR hits
system.cpu.dcache.WriteReq_mshr_hits::total         8292                       # number of WriteReq MSHR hits
system.cpu.dcache.WriteReq_mshr_misses::.cpu.data        19010                       # number of WriteReq MSHR misses
system.cpu.dcache.WriteReq_mshr_misses::total        19010                       # number of WriteReq MSHR misses
system.cpu.dcache.WriteReq_mshr_miss_latency::.cpu.data   2136757000                       # number of WriteReq MSHR miss cycles
system.cpu.dcache.WriteReq_mshr_miss_latency::total   2136757000                       # number of WriteReq MSHR miss cycles
system.cpu.dcache.WriteReq_mshr_miss_rate::.cpu.data     0.001340                       # mshr miss rate for WriteReq accesses
system.cpu.dcache.WriteReq_mshr_miss_rate::total     0.001340                       # mshr miss rate for WriteReq accesses
system.cpu.dcache.WriteReq_avg_mshr_miss_latency::.cpu.data 112401.735928                       # average WriteReq mshr miss latency
system.cpu.dcache.WriteReq_avg_mshr_miss_latency::total 112401.735928                       # average WriteReq mshr miss latency
system.cpu.dcache.SoftPFReq_hits::.cpu.data         3096                       # number of SoftPFReq hits
system.cpu.dcache.SoftPFReq_hits::total          3096                       # number of SoftPFReq hits
system.cpu.dcache.SoftPFReq_misses::.cpu.data           33                       # number of SoftPFReq misses
system.cpu.dcache.SoftPFReq_misses::total           33                       # number of SoftPFReq misses
system.cpu.dcache.SoftPFReq_accesses::.cpu.data         3129                       # number of SoftPFReq accesses(hits+misses)
system.cpu.dcache.SoftPFReq_accesses::total         3129                       # number of SoftPFReq accesses(hits+misses)
system.cpu.dcache.SoftPFReq_miss_rate::.cpu.data     0.010547                       # miss rate for SoftPFReq accesses
system.cpu.dcache.SoftPFReq_miss_rate::total     0.010547                       # miss rate for SoftPFReq accesses
system.cpu.dcache.SoftPFReq_mshr_misses::.cpu.data           18                       # number of SoftPFReq MSHR misses
system.cpu.dcache.SoftPFReq_mshr_misses::total           18                       # number of SoftPFReq MSHR misses
system.cpu.dcache.SoftPFReq_mshr_miss_latency::.cpu.data      1349000                       # number of SoftPFReq MSHR miss cycles
system.cpu.dcache.SoftPFReq_mshr_miss_latency::total      1349000                       # number of SoftPFReq MSHR miss cycles
system.cpu.dcache.SoftPFReq_mshr_miss_rate::.cpu.data     0.005753                       # mshr miss rate for SoftPFReq accesses
system.cpu.dcache.SoftPFReq_mshr_miss_rate::total     0.005753                       # mshr miss rate for SoftPFReq accesses
system.cpu.dcache.SoftPFReq_avg_mshr_miss_latency::.cpu.data 74944.444444                       # average SoftPFReq mshr miss latency
system.cpu.dcache.SoftPFReq_avg_mshr_miss_latency::total 74944.444444                       # average SoftPFReq mshr miss latency
system.cpu.dcache.LoadLockedReq_hits::.cpu.data        85610                       # number of LoadLockedReq hits
system.cpu.dcache.LoadLockedReq_hits::total        85610                       # number of LoadLockedReq hits
system.cpu.dcache.LoadLockedReq_accesses::.cpu.data        85610                       # number of LoadLockedReq accesses(hits+misses)
system.cpu.dcache.LoadLockedReq_accesses::total        85610                       # number of LoadLockedReq accesses(hits+misses)
system.cpu.dcache.StoreCondReq_hits::.cpu.data        85610                       # number of StoreCondReq hits
system.cpu.dcache.StoreCondReq_hits::total        85610                       # number of StoreCondReq hits
system.cpu.dcache.StoreCondReq_accesses::.cpu.data        85610                       # number of StoreCondReq accesses(hits+misses)
system.cpu.dcache.StoreCondReq_accesses::total        85610                       # number of StoreCondReq accesses(hits+misses)
system.cpu.dcache.tags.pwrStateResidencyTicks::UNDEFINED 107455849000                       # Cumulative time (in ticks) in various power states
system.cpu.dcache.tags.tagsinuse           510.531513                       # Cycle average of tags in use
system.cpu.dcache.tags.total_refs            35202788                       # Total number of references to valid blocks.
system.cpu.dcache.tags.sampled_refs             34164                       # Sample count of references to valid blocks.
system.cpu.dcache.tags.avg_refs           1030.405924                       # Average number of references to valid blocks.
system.cpu.dcache.tags.warmup_cycle            233000                       # Cycle when the warmup percentage was hit.
system.cpu.dcache.tags.occ_blocks::.cpu.data   510.531513                       # Average occupied blocks per requestor
system.cpu.dcache.tags.occ_percent::.cpu.data     0.997132                       # Average percentage of cache occupancy
system.cpu.dcache.tags.occ_percent::total     0.997132                       # Average percentage of cache occupancy
system.cpu.dcache.tags.occ_task_id_blocks::1024          512                       # Occupied blocks per task id
system.cpu.dcache.tags.age_task_id_blocks_1024::0            3                       # Occupied blocks per task id
system.cpu.dcache.tags.age_task_id_blocks_1024::1           19                       # Occupied blocks per task id
system.cpu.dcache.tags.age_task_id_blocks_1024::2          162                       # Occupied blocks per task id
system.cpu.dcache.tags.age_task_id_blocks_1024::3          306                       # Occupied blocks per task id
system.cpu.dcache.tags.age_task_id_blocks_1024::4           22                       # Occupied blocks per task id
system.cpu.dcache.tags.occ_task_id_percent::1024            1                       # Percentage of cache occupancy per task id
system.cpu.dcache.tags.tag_accesses          70460866                       # Number of tag accesses
system.cpu.dcache.tags.data_accesses         70460866                       # Number of data accesses
system.cpu.itb.walker.pwrStateResidencyTicks::UNDEFINED 107455849000                       # Cumulative time (in ticks) in various power states
system.cpu.itb.stage2_mmu.stage2_tlb.walker.pwrStateResidencyTicks::UNDEFINED 107455849000                       # Cumulative time (in ticks) in various power states

---------- End Simulation Statistics   ----------
