
---------- Begin Simulation Statistics ----------
final_tick                               170846984000                       # Number of ticks from beginning of simulation (restored from checkpoints and never reset)
host_inst_rate                                 495203                       # Simulator instruction rate (inst/s)
host_mem_usage                                 710900                       # Number of bytes of host memory used
host_op_rate                                   495220                       # Simulator op (including micro ops) rate (op/s)
host_seconds                                   201.94                       # Real time elapsed on the host
host_tick_rate                              846038489                       # Simulator tick rate (ticks/s)
sim_freq                                 1000000000000                       # Frequency of simulated ticks
sim_insts                                   100000000                       # Number of instructions simulated
sim_ops                                     100003445                       # Number of ops (including micro ops) simulated
sim_seconds                                  0.170847                       # Number of seconds simulated
sim_ticks                                170846984000                       # Number of ticks simulated
system.cpu.branchPred.BTBCorrect                    0                       # Number of correct BTB predictions (this stat may not work properly.
system.cpu.branchPred.BTBHitPct             99.500113                       # BTB Hit Percentage
system.cpu.branchPred.BTBHits                  596737                       # Number of BTB hits
system.cpu.branchPred.BTBLookups               599735                       # Number of BTB lookups
system.cpu.branchPred.RASInCorrect                  7                       # Number of incorrect RAS predictions.
system.cpu.branchPred.condIncorrect               843                       # Number of conditional branches incorrect
system.cpu.branchPred.condPredicted            599942                       # Number of conditional branches predicted
system.cpu.branchPred.indirectHits                164                       # Number of indirect target hits.
system.cpu.branchPred.indirectLookups             370                       # Number of indirect predictor lookups.
system.cpu.branchPred.indirectMisses              206                       # Number of indirect misses.
system.cpu.branchPred.lookups                  602037                       # Number of BP lookups
system.cpu.branchPred.usedRAS                     560                       # Number of times the RAS was used to get a target.
system.cpu.branchPredindirectMispredicted          114                       # Number of mispredicted indirect branches.
system.cpu.committedInsts                   100000000                       # Number of instructions committed
system.cpu.committedOps                     100003445                       # Number of ops (including micro ops) committed
system.cpu.cpi                               1.708470                       # CPI: cycles per instruction
system.cpu.discardedOps                          2596                       # Number of ops (including micro ops) which were discarded before commit
system.cpu.dtb.accesses                             0                       # DTB accesses
system.cpu.dtb.align_faults                         0                       # Number of TLB faults due to alignment restrictions
system.cpu.dtb.domain_faults                        0                       # Number of TLB faults due to domain restrictions
system.cpu.dtb.flush_entries                        0                       # Number of entries that have been flushed from TLB
system.cpu.dtb.flush_tlb                            0                       # Number of times complete TLB was flushed
system.cpu.dtb.flush_tlb_asid                       0                       # Number of times TLB was flushed by ASID
system.cpu.dtb.flush_tlb_mva                        0                       # Number of times TLB was flushed by MVA
system.cpu.dtb.flush_tlb_mva_asid                   0                       # Number of times TLB was flushed by MVA & ASID
system.cpu.dtb.hits                                 0                       # DTB hits
system.cpu.dtb.inst_accesses                        0                       # ITB inst accesses
system.cpu.dtb.inst_hits                            0                       # ITB inst hits
system.cpu.dtb.inst_misses                          0                       # ITB inst misses
system.cpu.dtb.misses                               0                       # DTB misses
system.cpu.dtb.perms_faults                         0                       # Number of TLB faults due to permissions restrictions
system.cpu.dtb.prefetch_faults                      0                       # Number of TLB faults due to prefetch
system.cpu.dtb.read_accesses                        0                       # DTB read accesses
system.cpu.dtb.read_hits                            0                       # DTB read hits
system.cpu.dtb.read_misses                          0                       # DTB read misses
system.cpu.dtb.stage2_mmu.stage2_tlb.accesses            0                       # DTB accesses
system.cpu.dtb.stage2_mmu.stage2_tlb.align_faults            0                       # Number of TLB faults due to alignment restrictions
system.cpu.dtb.stage2_mmu.stage2_tlb.domain_faults            0                       # Number of TLB faults due to domain restrictions
system.cpu.dtb.stage2_mmu.stage2_tlb.flush_entries            0                       # Number of entries that have been flushed from TLB
system.cpu.dtb.stage2_mmu.stage2_tlb.flush_tlb            0                       # Number of times complete TLB was flushed
system.cpu.dtb.stage2_mmu.stage2_tlb.flush_tlb_asid            0                       # Number of times TLB was flushed by ASID
system.cpu.dtb.stage2_mmu.stage2_tlb.flush_tlb_mva            0                       # Number of times TLB was flushed by MVA
system.cpu.dtb.stage2_mmu.stage2_tlb.flush_tlb_mva_asid            0                       # Number of times TLB was flushed by MVA & ASID
system.cpu.dtb.stage2_mmu.stage2_tlb.hits            0                       # DTB hits
system.cpu.dtb.stage2_mmu.stage2_tlb.inst_accesses            0                       # ITB inst accesses
system.cpu.dtb.stage2_mmu.stage2_tlb.inst_hits            0                       # ITB inst hits
system.cpu.dtb.stage2_mmu.stage2_tlb.inst_misses            0                       # ITB inst misses
system.cpu.dtb.stage2_mmu.stage2_tlb.misses            0                       # DTB misses
system.cpu.dtb.stage2_mmu.stage2_tlb.perms_faults            0                       # Number of TLB faults due to permissions restrictions
system.cpu.dtb.stage2_mmu.stage2_tlb.prefetch_faults            0                       # Number of TLB faults due to prefetch
system.cpu.dtb.stage2_mmu.stage2_tlb.read_accesses            0                       # DTB read accesses
system.cpu.dtb.stage2_mmu.stage2_tlb.read_hits            0                       # DTB read hits
system.cpu.dtb.stage2_mmu.stage2_tlb.read_misses            0                       # DTB read misses
system.cpu.dtb.stage2_mmu.stage2_tlb.walker.walkRequestOrigin_Requested::Data            0                       # Table walker requests started/completed, data/inst
system.cpu.dtb.stage2_mmu.stage2_tlb.walker.walkRequestOrigin_Requested::Inst            0                       # Table walker requests started/completed, data/inst
system.cpu.dtb.stage2_mmu.stage2_tlb.walker.walkRequestOrigin_Requested::total            0                       # Table walker requests started/completed, data/inst
system.cpu.dtb.stage2_mmu.stage2_tlb.walker.walkRequestOrigin_Completed::Data            0                       # Table walker requests started/completed, data/inst
system.cpu.dtb.stage2_mmu.stage2_tlb.walker.walkRequestOrigin_Completed::Inst            0                       # Table walker requests started/completed, data/inst
system.cpu.dtb.stage2_mmu.stage2_tlb.walker.walkRequestOrigin_Completed::total            0                       # Table walker requests started/completed, data/inst
system.cpu.dtb.stage2_mmu.stage2_tlb.walker.walkRequestOrigin::total            0                       # Table walker requests started/completed, data/inst
system.cpu.dtb.stage2_mmu.stage2_tlb.walker.walks            0                       # Table walker walks requested
system.cpu.dtb.stage2_mmu.stage2_tlb.write_accesses            0                       # DTB write accesses
system.cpu.dtb.stage2_mmu.stage2_tlb.write_hits            0                       # DTB write hits
system.cpu.dtb.stage2_mmu.stage2_tlb.write_misses            0                       # DTB write misses
system.cpu.dtb.walker.walkRequestOrigin_Requested::Data            0                       # Table walker requests started/completed, data/inst
system.cpu.dtb.walker.walkRequestOrigin_Requested::Inst            0                       # Table walker requests started/completed, data/inst
system.cpu.dtb.walker.walkRequestOrigin_Requested::total            0                       # Table walker requests started/completed, data/inst
system.cpu.dtb.walker.walkRequestOrigin_Completed::Data            0                       # Table walker requests started/completed, data/inst
system.cpu.dtb.walker.walkRequestOrigin_Completed::Inst            0                       # Table walker requests started/completed, data/inst
system.cpu.dtb.walker.walkRequestOrigin_Completed::total            0                       # Table walker requests started/completed, data/inst
system.cpu.dtb.walker.walkRequestOrigin::total            0                       # Table walker requests started/completed, data/inst
system.cpu.dtb.walker.walks                         0                       # Table walker walks requested
system.cpu.dtb.write_accesses                       0                       # DTB write accesses
system.cpu.dtb.write_hits                           0                       # DTB write hits
system.cpu.dtb.write_misses                         0                       # DTB write misses
system.cpu.fetch2.amo_instructions                  0                       # Number of memory atomic instructions successfully decoded
system.cpu.fetch2.fp_instructions                   0                       # Number of floating point instructions successfully decoded
system.cpu.fetch2.int_instructions           49412173                       # Number of integer instructions successfully decoded
system.cpu.fetch2.load_instructions          36901232                       # Number of memory load instructions successfully decoded
system.cpu.fetch2.store_instructions         13094393                       # Number of memory store instructions successfully decoded
system.cpu.fetch2.vec_instructions                  0                       # Number of SIMD instructions successfully decoded
system.cpu.idleCycles                        56984782                       # Total number of cycles that the object has spent stopped
system.cpu.ipc                               0.585319                       # IPC: instructions per cycle
system.cpu.itb.accesses                             0                       # DTB accesses
system.cpu.itb.align_faults                         0                       # Number of TLB faults due to alignment restrictions
system.cpu.itb.domain_faults                        0                       # Number of TLB faults due to domain restrictions
system.cpu.itb.flush_entries                        0                       # Number of entries that have been flushed from TLB
system.cpu.itb.flush_tlb                            0                       # Number of times complete TLB was flushed
system.cpu.itb.flush_tlb_asid                       0                       # Number of times TLB was flushed by ASID
system.cpu.itb.flush_tlb_mva                        0                       # Number of times TLB was flushed by MVA
system.cpu.itb.flush_tlb_mva_asid                   0                       # Number of times TLB was flushed by MVA & ASID
system.cpu.itb.hits                                 0                       # DTB hits
system.cpu.itb.inst_accesses                        0                       # ITB inst accesses
system.cpu.itb.inst_hits                            0                       # ITB inst hits
system.cpu.itb.inst_misses                          0                       # ITB inst misses
system.cpu.itb.misses                               0                       # DTB misses
system.cpu.itb.perms_faults                         0                       # Number of TLB faults due to permissions restrictions
system.cpu.itb.prefetch_faults                      0                       # Number of TLB faults due to prefetch
system.cpu.itb.read_accesses                        0                       # DTB read accesses
system.cpu.itb.read_hits                            0                       # DTB read hits
system.cpu.itb.read_misses                          0                       # DTB read misses
system.cpu.itb.stage2_mmu.stage2_tlb.accesses            0                       # DTB accesses
system.cpu.itb.stage2_mmu.stage2_tlb.align_faults            0                       # Number of TLB faults due to alignment restrictions
system.cpu.itb.stage2_mmu.stage2_tlb.domain_faults            0                       # Number of TLB faults due to domain restrictions
system.cpu.itb.stage2_mmu.stage2_tlb.flush_entries            0                       # Number of entries that have been flushed from TLB
system.cpu.itb.stage2_mmu.stage2_tlb.flush_tlb            0                       # Number of times complete TLB was flushed
system.cpu.itb.stage2_mmu.stage2_tlb.flush_tlb_asid            0                       # Number of times TLB was flushed by ASID
system.cpu.itb.stage2_mmu.stage2_tlb.flush_tlb_mva            0                       # Number of times TLB was flushed by MVA
system.cpu.itb.stage2_mmu.stage2_tlb.flush_tlb_mva_asid            0                       # Number of times TLB was flushed by MVA & ASID
system.cpu.itb.stage2_mmu.stage2_tlb.hits            0                       # DTB hits
system.cpu.itb.stage2_mmu.stage2_tlb.inst_accesses            0                       # ITB inst accesses
system.cpu.itb.stage2_mmu.stage2_tlb.inst_hits            0                       # ITB inst hits
system.cpu.itb.stage2_mmu.stage2_tlb.inst_misses            0                       # ITB inst misses
system.cpu.itb.stage2_mmu.stage2_tlb.misses            0                       # DTB misses
system.cpu.itb.stage2_mmu.stage2_tlb.perms_faults            0                       # Number of TLB faults due to permissions restrictions
system.cpu.itb.stage2_mmu.stage2_tlb.prefetch_faults            0                       # Number of TLB faults due to prefetch
system.cpu.itb.stage2_mmu.stage2_tlb.read_accesses            0                       # DTB read accesses
system.cpu.itb.stage2_mmu.stage2_tlb.read_hits            0                       # DTB read hits
system.cpu.itb.stage2_mmu.stage2_tlb.read_misses            0                       # DTB read misses
system.cpu.itb.stage2_mmu.stage2_tlb.walker.walkRequestOrigin_Requested::Data            0                       # Table walker requests started/completed, data/inst
system.cpu.itb.stage2_mmu.stage2_tlb.walker.walkRequestOrigin_Requested::Inst            0                       # Table walker requests started/completed, data/inst
system.cpu.itb.stage2_mmu.stage2_tlb.walker.walkRequestOrigin_Requested::total            0                       # Table walker requests started/completed, data/inst
system.cpu.itb.stage2_mmu.stage2_tlb.walker.walkRequestOrigin_Completed::Data            0                       # Table walker requests started/completed, data/inst
system.cpu.itb.stage2_mmu.stage2_tlb.walker.walkRequestOrigin_Completed::Inst            0                       # Table walker requests started/completed, data/inst
system.cpu.itb.stage2_mmu.stage2_tlb.walker.walkRequestOrigin_Completed::total            0                       # Table walker requests started/completed, data/inst
system.cpu.itb.stage2_mmu.stage2_tlb.walker.walkRequestOrigin::total            0                       # Table walker requests started/completed, data/inst
system.cpu.itb.stage2_mmu.stage2_tlb.walker.walks            0                       # Table walker walks requested
system.cpu.itb.stage2_mmu.stage2_tlb.write_accesses            0                       # DTB write accesses
system.cpu.itb.stage2_mmu.stage2_tlb.write_hits            0                       # DTB write hits
system.cpu.itb.stage2_mmu.stage2_tlb.write_misses            0                       # DTB write misses
system.cpu.itb.walker.walkRequestOrigin_Requested::Data            0                       # Table walker requests started/completed, data/inst
system.cpu.itb.walker.walkRequestOrigin_Requested::Inst            0                       # Table walker requests started/completed, data/inst
system.cpu.itb.walker.walkRequestOrigin_Requested::total            0                       # Table walker requests started/completed, data/inst
system.cpu.itb.walker.walkRequestOrigin_Completed::Data            0                       # Table walker requests started/completed, data/inst
system.cpu.itb.walker.walkRequestOrigin_Completed::Inst            0                       # Table walker requests started/completed, data/inst
system.cpu.itb.walker.walkRequestOrigin_Completed::total            0                       # Table walker requests started/completed, data/inst
system.cpu.itb.walker.walkRequestOrigin::total            0                       # Table walker requests started/completed, data/inst
system.cpu.itb.walker.walks                         0                       # Table walker walks requested
system.cpu.itb.write_accesses                       0                       # DTB write accesses
system.cpu.itb.write_hits                           0                       # DTB write hits
system.cpu.itb.write_misses                         0                       # DTB write misses
system.cpu.numCycles                        170846984                       # number of cpu cycles simulated
system.cpu.numFetchSuspends                         0                       # Number of times Execute suspended instruction fetching
system.cpu.numWorkItemsCompleted                    0                       # number of work items this cpu completed
system.cpu.numWorkItemsStarted                      0                       # number of work items this cpu started
system.cpu.op_class_0::No_OpClass                   0      0.00%      0.00% # Class of committed instruction
system.cpu.op_class_0::IntAlu                50006868     50.01%     50.01% # Class of committed instruction
system.cpu.op_class_0::IntMult                     85      0.00%     50.01% # Class of committed instruction
system.cpu.op_class_0::IntDiv                       0      0.00%     50.01% # Class of committed instruction
system.cpu.op_class_0::FloatAdd                     0      0.00%     50.01% # Class of committed instruction
system.cpu.op_class_0::FloatCmp                     0      0.00%     50.01% # Class of committed instruction
system.cpu.op_class_0::FloatCvt                     0      0.00%     50.01% # Class of committed instruction
system.cpu.op_class_0::FloatMult                    0      0.00%     50.01% # Class of committed instruction
system.cpu.op_class_0::FloatMultAcc                 0      0.00%     50.01% # Class of committed instruction
system.cpu.op_class_0::FloatDiv                     0      0.00%     50.01% # Class of committed instruction
system.cpu.op_class_0::FloatMisc                    0      0.00%     50.01% # Class of committed instruction
system.cpu.op_class_0::FloatSqrt                    0      0.00%     50.01% # Class of committed instruction
system.cpu.op_class_0::SimdAdd                      0      0.00%     50.01% # Class of committed instruction
system.cpu.op_class_0::SimdAddAcc                   0      0.00%     50.01% # Class of committed instruction
system.cpu.op_class_0::SimdAlu                      0      0.00%     50.01% # Class of committed instruction
system.cpu.op_class_0::SimdCmp                      0      0.00%     50.01% # Class of committed instruction
system.cpu.op_class_0::SimdCvt                      0      0.00%     50.01% # Class of committed instruction
system.cpu.op_class_0::SimdMisc                     0      0.00%     50.01% # Class of committed instruction
system.cpu.op_class_0::SimdMult                     0      0.00%     50.01% # Class of committed instruction
system.cpu.op_class_0::SimdMultAcc                  0      0.00%     50.01% # Class of committed instruction
system.cpu.op_class_0::SimdShift                    0      0.00%     50.01% # Class of committed instruction
system.cpu.op_class_0::SimdShiftAcc                 0      0.00%     50.01% # Class of committed instruction
system.cpu.op_class_0::SimdDiv                      0      0.00%     50.01% # Class of committed instruction
system.cpu.op_class_0::SimdSqrt                     0      0.00%     50.01% # Class of committed instruction
system.cpu.op_class_0::SimdFloatAdd                 0      0.00%     50.01% # Class of committed instruction
system.cpu.op_class_0::SimdFloatAlu                 0      0.00%     50.01% # Class of committed instruction
system.cpu.op_class_0::SimdFloatCmp                 2      0.00%     50.01% # Class of committed instruction
system.cpu.op_class_0::SimdFloatCvt                 0      0.00%     50.01% # Class of committed instruction
system.cpu.op_class_0::SimdFloatDiv                 0      0.00%     50.01% # Class of committed instruction
system.cpu.op_class_0::SimdFloatMisc                5      0.00%     50.01% # Class of committed instruction
system.cpu.op_class_0::SimdFloatMult                0      0.00%     50.01% # Class of committed instruction
system.cpu.op_class_0::SimdFloatMultAcc             0      0.00%     50.01% # Class of committed instruction
system.cpu.op_class_0::SimdFloatSqrt                0      0.00%     50.01% # Class of committed instruction
system.cpu.op_class_0::SimdReduceAdd                0      0.00%     50.01% # Class of committed instruction
system.cpu.op_class_0::SimdReduceAlu                0      0.00%     50.01% # Class of committed instruction
system.cpu.op_class_0::SimdReduceCmp                0      0.00%     50.01% # Class of committed instruction
system.cpu.op_class_0::SimdFloatReduceAdd            0      0.00%     50.01% # Class of committed instruction
system.cpu.op_class_0::SimdFloatReduceCmp            0      0.00%     50.01% # Class of committed instruction
system.cpu.op_class_0::SimdAes                      0      0.00%     50.01% # Class of committed instruction
system.cpu.op_class_0::SimdAesMix                   0      0.00%     50.01% # Class of committed instruction
system.cpu.op_class_0::SimdSha1Hash                 0      0.00%     50.01% # Class of committed instruction
system.cpu.op_class_0::SimdSha1Hash2                0      0.00%     50.01% # Class of committed instruction
system.cpu.op_class_0::SimdSha256Hash               0      0.00%     50.01% # Class of committed instruction
system.cpu.op_class_0::SimdSha256Hash2              0      0.00%     50.01% # Class of committed instruction
system.cpu.op_class_0::SimdShaSigma2                0      0.00%     50.01% # Class of committed instruction
system.cpu.op_class_0::SimdShaSigma3                0      0.00%     50.01% # Class of committed instruction
system.cpu.op_class_0::SimdPredAlu                  0      0.00%     50.01% # Class of committed instruction
system.cpu.op_class_0::MemRead               36900855     36.90%     86.90% # Class of committed instruction
system.cpu.op_class_0::MemWrite              13095630     13.10%    100.00% # Class of committed instruction
system.cpu.op_class_0::FloatMemRead                 0      0.00%    100.00% # Class of committed instruction
system.cpu.op_class_0::FloatMemWrite                0      0.00%    100.00% # Class of committed instruction
system.cpu.op_class_0::IprAccess                    0      0.00%    100.00% # Class of committed instruction
system.cpu.op_class_0::InstPrefetch                 0      0.00%    100.00% # Class of committed instruction
system.cpu.op_class_0::total                100003445                       # Class of committed instruction
system.cpu.tickCycles                       113862202                       # Number of cycles that the object actually ticked
system.cpu.workload.numSyscalls                    19                       # Number of system calls
system.membus.snoop_filter.hit_multi_requests            0                       # Number of requests hitting in the snoop filter with multiple (>1) holders of the requested data.
system.membus.snoop_filter.hit_multi_snoops            0                       # Number of snoops hitting in the snoop filter with multiple (>1) holders of the requested data.
system.membus.snoop_filter.hit_single_requests       367951                       # Number of requests hitting in the snoop filter with a single holder of the requested data.
system.membus.snoop_filter.hit_single_snoops            0                       # Number of snoops hitting in the snoop filter with a single holder of the requested data.
system.membus.snoop_filter.tot_requests        740195                       # Total number of requests made to the snoop filter.
system.membus.snoop_filter.tot_snoops               0                       # Total number of snoops made to the snoop filter.
system.tol2bus.snoop_filter.hit_multi_requests        23280                       # Number of requests hitting in the snoop filter with multiple (>1) holders of the requested data.
system.tol2bus.snoop_filter.hit_multi_snoops            0                       # Number of snoops hitting in the snoop filter with multiple (>1) holders of the requested data.
system.tol2bus.snoop_filter.hit_single_requests       493056                       # Number of requests hitting in the snoop filter with a single holder of the requested data.
system.tol2bus.snoop_filter.hit_single_snoops          197                       # Number of snoops hitting in the snoop filter with a single holder of the requested data.
system.tol2bus.snoop_filter.tot_requests       986564                       # Total number of requests made to the snoop filter.
system.tol2bus.snoop_filter.tot_snoops            197                       # Total number of snoops made to the snoop filter.
system.membus.pwrStateResidencyTicks::UNDEFINED 170846984000                       # Cumulative time (in ticks) in various power states
system.membus.trans_dist::ReadResp                275                       # Transaction distribution
system.membus.trans_dist::WritebackDirty       367885                       # Transaction distribution
system.membus.trans_dist::CleanEvict               66                       # Transaction distribution
system.membus.trans_dist::ReadExReq            371969                       # Transaction distribution
system.membus.trans_dist::ReadExResp           371969                       # Transaction distribution
system.membus.trans_dist::ReadSharedReq           275                       # Transaction distribution
system.membus.pkt_count_system.l2.mem_side::system.mem_ctrls.port      1112439                       # Packet count per connected master and slave (bytes)
system.membus.pkt_count::total                1112439                       # Packet count per connected master and slave (bytes)
system.membus.pkt_size_system.l2.mem_side::system.mem_ctrls.port    189473024                       # Cumulative packet size per connected master and slave (bytes)
system.membus.pkt_size::total               189473024                       # Cumulative packet size per connected master and slave (bytes)
system.membus.snoops                                0                       # Total snoops (count)
system.membus.snoopTraffic                          0                       # Total snoop traffic (bytes)
system.membus.snoop_fanout::samples            372244                       # Request fanout histogram
system.membus.snoop_fanout::mean                    0                       # Request fanout histogram
system.membus.snoop_fanout::stdev                   0                       # Request fanout histogram
system.membus.snoop_fanout::underflows              0      0.00%      0.00% # Request fanout histogram
system.membus.snoop_fanout::0                  372244    100.00%    100.00% # Request fanout histogram
system.membus.snoop_fanout::1                       0      0.00%    100.00% # Request fanout histogram
system.membus.snoop_fanout::overflows               0      0.00%    100.00% # Request fanout histogram
system.membus.snoop_fanout::min_value               0                       # Request fanout histogram
system.membus.snoop_fanout::max_value               0                       # Request fanout histogram
system.membus.snoop_fanout::total              372244                       # Request fanout histogram
system.membus.respLayer1.occupancy         6472840750                       # Layer occupancy (ticks)
system.membus.respLayer1.utilization              3.8                       # Layer utilization (%)
system.membus.reqLayer0.occupancy          6626355000                       # Layer occupancy (ticks)
system.membus.reqLayer0.utilization               3.9                       # Layer utilization (%)
system.tol2bus.pwrStateResidencyTicks::UNDEFINED 170846984000                       # Cumulative time (in ticks) in various power states
system.tol2bus.trans_dist::ReadResp             62257                       # Transaction distribution
system.tol2bus.trans_dist::WritebackDirty       837542                       # Transaction distribution
system.tol2bus.trans_dist::WritebackClean           92                       # Transaction distribution
system.tol2bus.trans_dist::CleanEvict           23569                       # Transaction distribution
system.tol2bus.trans_dist::ReadExReq           431252                       # Transaction distribution
system.tol2bus.trans_dist::ReadExResp          431252                       # Transaction distribution
system.tol2bus.trans_dist::ReadCleanReq           290                       # Transaction distribution
system.tol2bus.trans_dist::ReadSharedReq        61967                       # Transaction distribution
system.tol2bus.pkt_count_system.cpu.icache.mem_side::system.l2.cpu_side          672                       # Packet count per connected master and slave (bytes)
system.tol2bus.pkt_count_system.cpu.dcache.mem_side::system.l2.cpu_side      1479401                       # Packet count per connected master and slave (bytes)
system.tol2bus.pkt_count::total               1480073                       # Packet count per connected master and slave (bytes)
system.tol2bus.pkt_size_system.cpu.icache.mem_side::system.l2.cpu_side        97792                       # Cumulative packet size per connected master and slave (bytes)
system.tol2bus.pkt_size_system.cpu.dcache.mem_side::system.l2.cpu_side    246496256                       # Cumulative packet size per connected master and slave (bytes)
system.tol2bus.pkt_size::total              246594048                       # Cumulative packet size per connected master and slave (bytes)
system.tol2bus.snoops                          368148                       # Total snoops (count)
system.tol2bus.snoopTraffic                  94178560                       # Total snoop traffic (bytes)
system.tol2bus.snoop_fanout::samples           861657                       # Request fanout histogram
system.tol2bus.snoop_fanout::mean            0.027248                       # Request fanout histogram
system.tol2bus.snoop_fanout::stdev           0.162804                       # Request fanout histogram
system.tol2bus.snoop_fanout::underflows             0      0.00%      0.00% # Request fanout histogram
system.tol2bus.snoop_fanout::0                 838179     97.28%     97.28% # Request fanout histogram
system.tol2bus.snoop_fanout::1                  23478      2.72%    100.00% # Request fanout histogram
system.tol2bus.snoop_fanout::2                      0      0.00%    100.00% # Request fanout histogram
system.tol2bus.snoop_fanout::overflows              0      0.00%    100.00% # Request fanout histogram
system.tol2bus.snoop_fanout::min_value              0                       # Request fanout histogram
system.tol2bus.snoop_fanout::max_value              1                       # Request fanout histogram
system.tol2bus.snoop_fanout::total             861657                       # Request fanout histogram
system.tol2bus.reqLayer0.occupancy         4744556000                       # Layer occupancy (ticks)
system.tol2bus.reqLayer0.utilization              2.8                       # Layer utilization (%)
system.tol2bus.respLayer1.occupancy        4438973997                       # Layer occupancy (ticks)
system.tol2bus.respLayer1.utilization             2.6                       # Layer utilization (%)
system.tol2bus.respLayer0.occupancy           2610000                       # Layer occupancy (ticks)
system.tol2bus.respLayer0.utilization             0.0                       # Layer utilization (%)
system.voltage_domain.voltage                       1                       # Voltage in Volts
system.clk_domain.clock                          1000                       # Clock period in ticks
system.l2.pwrStateResidencyTicks::UNDEFINED 170846984000                       # Cumulative time (in ticks) in various power states
system.l2.demand_hits::.cpu.inst                   62                       # number of demand (read+write) hits
system.l2.demand_hits::.cpu.data               121200                       # number of demand (read+write) hits
system.l2.demand_hits::total                   121262                       # number of demand (read+write) hits
system.l2.overall_hits::.cpu.inst                  62                       # number of overall hits
system.l2.overall_hits::.cpu.data              121200                       # number of overall hits
system.l2.overall_hits::total                  121262                       # number of overall hits
system.l2.demand_misses::.cpu.inst                228                       # number of demand (read+write) misses
system.l2.demand_misses::.cpu.data             372019                       # number of demand (read+write) misses
system.l2.demand_misses::total                 372247                       # number of demand (read+write) misses
system.l2.overall_misses::.cpu.inst               228                       # number of overall misses
system.l2.overall_misses::.cpu.data            372019                       # number of overall misses
system.l2.overall_misses::total                372247                       # number of overall misses
system.l2.demand_miss_latency::.cpu.inst     26067000                       # number of demand (read+write) miss cycles
system.l2.demand_miss_latency::.cpu.data  44656175000                       # number of demand (read+write) miss cycles
system.l2.demand_miss_latency::total      44682242000                       # number of demand (read+write) miss cycles
system.l2.overall_miss_latency::.cpu.inst     26067000                       # number of overall miss cycles
system.l2.overall_miss_latency::.cpu.data  44656175000                       # number of overall miss cycles
system.l2.overall_miss_latency::total     44682242000                       # number of overall miss cycles
system.l2.demand_accesses::.cpu.inst              290                       # number of demand (read+write) accesses
system.l2.demand_accesses::.cpu.data           493219                       # number of demand (read+write) accesses
system.l2.demand_accesses::total               493509                       # number of demand (read+write) accesses
system.l2.overall_accesses::.cpu.inst             290                       # number of overall (read+write) accesses
system.l2.overall_accesses::.cpu.data          493219                       # number of overall (read+write) accesses
system.l2.overall_accesses::total              493509                       # number of overall (read+write) accesses
system.l2.demand_miss_rate::.cpu.inst        0.786207                       # miss rate for demand accesses
system.l2.demand_miss_rate::.cpu.data        0.754267                       # miss rate for demand accesses
system.l2.demand_miss_rate::total            0.754286                       # miss rate for demand accesses
system.l2.overall_miss_rate::.cpu.inst       0.786207                       # miss rate for overall accesses
system.l2.overall_miss_rate::.cpu.data       0.754267                       # miss rate for overall accesses
system.l2.overall_miss_rate::total           0.754286                       # miss rate for overall accesses
system.l2.demand_avg_miss_latency::.cpu.inst 114328.947368                       # average overall miss latency
system.l2.demand_avg_miss_latency::.cpu.data 120037.350243                       # average overall miss latency
system.l2.demand_avg_miss_latency::total 120033.853866                       # average overall miss latency
system.l2.overall_avg_miss_latency::.cpu.inst 114328.947368                       # average overall miss latency
system.l2.overall_avg_miss_latency::.cpu.data 120037.350243                       # average overall miss latency
system.l2.overall_avg_miss_latency::total 120033.853866                       # average overall miss latency
system.l2.blocked_cycles::no_mshrs                  0                       # number of cycles access was blocked
system.l2.blocked_cycles::no_targets                0                       # number of cycles access was blocked
system.l2.blocked::no_mshrs                         0                       # number of cycles access was blocked
system.l2.blocked::no_targets                       0                       # number of cycles access was blocked
system.l2.avg_blocked_cycles::no_mshrs            nan                       # average number of cycles each access was blocked
system.l2.avg_blocked_cycles::no_targets          nan                       # average number of cycles each access was blocked
system.l2.writebacks::.writebacks              367885                       # number of writebacks
system.l2.writebacks::total                    367885                       # number of writebacks
system.l2.demand_mshr_hits::.cpu.data               3                       # number of demand (read+write) MSHR hits
system.l2.demand_mshr_hits::total                   3                       # number of demand (read+write) MSHR hits
system.l2.overall_mshr_hits::.cpu.data              3                       # number of overall MSHR hits
system.l2.overall_mshr_hits::total                  3                       # number of overall MSHR hits
system.l2.demand_mshr_misses::.cpu.inst           228                       # number of demand (read+write) MSHR misses
system.l2.demand_mshr_misses::.cpu.data        372016                       # number of demand (read+write) MSHR misses
system.l2.demand_mshr_misses::total            372244                       # number of demand (read+write) MSHR misses
system.l2.overall_mshr_misses::.cpu.inst          228                       # number of overall MSHR misses
system.l2.overall_mshr_misses::.cpu.data       372016                       # number of overall MSHR misses
system.l2.overall_mshr_misses::total           372244                       # number of overall MSHR misses
system.l2.demand_mshr_miss_latency::.cpu.inst     21507000                       # number of demand (read+write) MSHR miss cycles
system.l2.demand_mshr_miss_latency::.cpu.data  37215567000                       # number of demand (read+write) MSHR miss cycles
system.l2.demand_mshr_miss_latency::total  37237074000                       # number of demand (read+write) MSHR miss cycles
system.l2.overall_mshr_miss_latency::.cpu.inst     21507000                       # number of overall MSHR miss cycles
system.l2.overall_mshr_miss_latency::.cpu.data  37215567000                       # number of overall MSHR miss cycles
system.l2.overall_mshr_miss_latency::total  37237074000                       # number of overall MSHR miss cycles
system.l2.demand_mshr_miss_rate::.cpu.inst     0.786207                       # mshr miss rate for demand accesses
system.l2.demand_mshr_miss_rate::.cpu.data     0.754261                       # mshr miss rate for demand accesses
system.l2.demand_mshr_miss_rate::total       0.754280                       # mshr miss rate for demand accesses
system.l2.overall_mshr_miss_rate::.cpu.inst     0.786207                       # mshr miss rate for overall accesses
system.l2.overall_mshr_miss_rate::.cpu.data     0.754261                       # mshr miss rate for overall accesses
system.l2.overall_mshr_miss_rate::total      0.754280                       # mshr miss rate for overall accesses
system.l2.demand_avg_mshr_miss_latency::.cpu.inst 94328.947368                       # average overall mshr miss latency
system.l2.demand_avg_mshr_miss_latency::.cpu.data 100037.544084                       # average overall mshr miss latency
system.l2.demand_avg_mshr_miss_latency::total 100034.047560                       # average overall mshr miss latency
system.l2.overall_avg_mshr_miss_latency::.cpu.inst 94328.947368                       # average overall mshr miss latency
system.l2.overall_avg_mshr_miss_latency::.cpu.data 100037.544084                       # average overall mshr miss latency
system.l2.overall_avg_mshr_miss_latency::total 100034.047560                       # average overall mshr miss latency
system.l2.replacements                         368148                       # number of replacements
system.l2.WritebackDirty_hits::.writebacks       469657                       # number of WritebackDirty hits
system.l2.WritebackDirty_hits::total           469657                       # number of WritebackDirty hits
system.l2.WritebackDirty_accesses::.writebacks       469657                       # number of WritebackDirty accesses(hits+misses)
system.l2.WritebackDirty_accesses::total       469657                       # number of WritebackDirty accesses(hits+misses)
system.l2.WritebackClean_hits::.writebacks           88                       # number of WritebackClean hits
system.l2.WritebackClean_hits::total               88                       # number of WritebackClean hits
system.l2.WritebackClean_accesses::.writebacks           88                       # number of WritebackClean accesses(hits+misses)
system.l2.WritebackClean_accesses::total           88                       # number of WritebackClean accesses(hits+misses)
system.l2.ReadExReq_hits::.cpu.data             59283                       # number of ReadExReq hits
system.l2.ReadExReq_hits::total                 59283                       # number of ReadExReq hits
system.l2.ReadExReq_misses::.cpu.data          371969                       # number of ReadExReq misses
system.l2.ReadExReq_misses::total              371969                       # number of ReadExReq misses
system.l2.ReadExReq_miss_latency::.cpu.data  44650291000                       # number of ReadExReq miss cycles
system.l2.ReadExReq_miss_latency::total   44650291000                       # number of ReadExReq miss cycles
system.l2.ReadExReq_accesses::.cpu.data        431252                       # number of ReadExReq accesses(hits+misses)
system.l2.ReadExReq_accesses::total            431252                       # number of ReadExReq accesses(hits+misses)
system.l2.ReadExReq_miss_rate::.cpu.data     0.862533                       # miss rate for ReadExReq accesses
system.l2.ReadExReq_miss_rate::total         0.862533                       # miss rate for ReadExReq accesses
system.l2.ReadExReq_avg_miss_latency::.cpu.data 120037.667117                       # average ReadExReq miss latency
system.l2.ReadExReq_avg_miss_latency::total 120037.667117                       # average ReadExReq miss latency
system.l2.ReadExReq_mshr_misses::.cpu.data       371969                       # number of ReadExReq MSHR misses
system.l2.ReadExReq_mshr_misses::total         371969                       # number of ReadExReq MSHR misses
system.l2.ReadExReq_mshr_miss_latency::.cpu.data  37210911000                       # number of ReadExReq MSHR miss cycles
system.l2.ReadExReq_mshr_miss_latency::total  37210911000                       # number of ReadExReq MSHR miss cycles
system.l2.ReadExReq_mshr_miss_rate::.cpu.data     0.862533                       # mshr miss rate for ReadExReq accesses
system.l2.ReadExReq_mshr_miss_rate::total     0.862533                       # mshr miss rate for ReadExReq accesses
system.l2.ReadExReq_avg_mshr_miss_latency::.cpu.data 100037.667117                       # average ReadExReq mshr miss latency
system.l2.ReadExReq_avg_mshr_miss_latency::total 100037.667117                       # average ReadExReq mshr miss latency
system.l2.ReadCleanReq_hits::.cpu.inst             62                       # number of ReadCleanReq hits
system.l2.ReadCleanReq_hits::total                 62                       # number of ReadCleanReq hits
system.l2.ReadCleanReq_misses::.cpu.inst          228                       # number of ReadCleanReq misses
system.l2.ReadCleanReq_misses::total              228                       # number of ReadCleanReq misses
system.l2.ReadCleanReq_miss_latency::.cpu.inst     26067000                       # number of ReadCleanReq miss cycles
system.l2.ReadCleanReq_miss_latency::total     26067000                       # number of ReadCleanReq miss cycles
system.l2.ReadCleanReq_accesses::.cpu.inst          290                       # number of ReadCleanReq accesses(hits+misses)
system.l2.ReadCleanReq_accesses::total            290                       # number of ReadCleanReq accesses(hits+misses)
system.l2.ReadCleanReq_miss_rate::.cpu.inst     0.786207                       # miss rate for ReadCleanReq accesses
system.l2.ReadCleanReq_miss_rate::total      0.786207                       # miss rate for ReadCleanReq accesses
system.l2.ReadCleanReq_avg_miss_latency::.cpu.inst 114328.947368                       # average ReadCleanReq miss latency
system.l2.ReadCleanReq_avg_miss_latency::total 114328.947368                       # average ReadCleanReq miss latency
system.l2.ReadCleanReq_mshr_misses::.cpu.inst          228                       # number of ReadCleanReq MSHR misses
system.l2.ReadCleanReq_mshr_misses::total          228                       # number of ReadCleanReq MSHR misses
system.l2.ReadCleanReq_mshr_miss_latency::.cpu.inst     21507000                       # number of ReadCleanReq MSHR miss cycles
system.l2.ReadCleanReq_mshr_miss_latency::total     21507000                       # number of ReadCleanReq MSHR miss cycles
system.l2.ReadCleanReq_mshr_miss_rate::.cpu.inst     0.786207                       # mshr miss rate for ReadCleanReq accesses
system.l2.ReadCleanReq_mshr_miss_rate::total     0.786207                       # mshr miss rate for ReadCleanReq accesses
system.l2.ReadCleanReq_avg_mshr_miss_latency::.cpu.inst 94328.947368                       # average ReadCleanReq mshr miss latency
system.l2.ReadCleanReq_avg_mshr_miss_latency::total 94328.947368                       # average ReadCleanReq mshr miss latency
system.l2.ReadSharedReq_hits::.cpu.data         61917                       # number of ReadSharedReq hits
system.l2.ReadSharedReq_hits::total             61917                       # number of ReadSharedReq hits
system.l2.ReadSharedReq_misses::.cpu.data           50                       # number of ReadSharedReq misses
system.l2.ReadSharedReq_misses::total              50                       # number of ReadSharedReq misses
system.l2.ReadSharedReq_miss_latency::.cpu.data      5884000                       # number of ReadSharedReq miss cycles
system.l2.ReadSharedReq_miss_latency::total      5884000                       # number of ReadSharedReq miss cycles
system.l2.ReadSharedReq_accesses::.cpu.data        61967                       # number of ReadSharedReq accesses(hits+misses)
system.l2.ReadSharedReq_accesses::total         61967                       # number of ReadSharedReq accesses(hits+misses)
system.l2.ReadSharedReq_miss_rate::.cpu.data     0.000807                       # miss rate for ReadSharedReq accesses
system.l2.ReadSharedReq_miss_rate::total     0.000807                       # miss rate for ReadSharedReq accesses
system.l2.ReadSharedReq_avg_miss_latency::.cpu.data       117680                       # average ReadSharedReq miss latency
system.l2.ReadSharedReq_avg_miss_latency::total       117680                       # average ReadSharedReq miss latency
system.l2.ReadSharedReq_mshr_hits::.cpu.data            3                       # number of ReadSharedReq MSHR hits
system.l2.ReadSharedReq_mshr_hits::total            3                       # number of ReadSharedReq MSHR hits
system.l2.ReadSharedReq_mshr_misses::.cpu.data           47                       # number of ReadSharedReq MSHR misses
system.l2.ReadSharedReq_mshr_misses::total           47                       # number of ReadSharedReq MSHR misses
system.l2.ReadSharedReq_mshr_miss_latency::.cpu.data      4656000                       # number of ReadSharedReq MSHR miss cycles
system.l2.ReadSharedReq_mshr_miss_latency::total      4656000                       # number of ReadSharedReq MSHR miss cycles
system.l2.ReadSharedReq_mshr_miss_rate::.cpu.data     0.000758                       # mshr miss rate for ReadSharedReq accesses
system.l2.ReadSharedReq_mshr_miss_rate::total     0.000758                       # mshr miss rate for ReadSharedReq accesses
system.l2.ReadSharedReq_avg_mshr_miss_latency::.cpu.data 99063.829787                       # average ReadSharedReq mshr miss latency
system.l2.ReadSharedReq_avg_mshr_miss_latency::total 99063.829787                       # average ReadSharedReq mshr miss latency
system.l2.tags.pwrStateResidencyTicks::UNDEFINED 170846984000                       # Cumulative time (in ticks) in various power states
system.l2.tags.tagsinuse                  4075.188248                       # Cycle average of tags in use
system.l2.tags.total_refs                      963281                       # Total number of references to valid blocks.
system.l2.tags.sampled_refs                    372244                       # Sample count of references to valid blocks.
system.l2.tags.avg_refs                      2.587768                       # Average number of references to valid blocks.
system.l2.tags.warmup_cycle                    102000                       # Cycle when the warmup percentage was hit.
system.l2.tags.occ_blocks::.cpu.inst         3.101232                       # Average occupied blocks per requestor
system.l2.tags.occ_blocks::.cpu.data      4072.087016                       # Average occupied blocks per requestor
system.l2.tags.occ_percent::.cpu.inst        0.000757                       # Average percentage of cache occupancy
system.l2.tags.occ_percent::.cpu.data        0.994162                       # Average percentage of cache occupancy
system.l2.tags.occ_percent::total            0.994919                       # Average percentage of cache occupancy
system.l2.tags.occ_task_id_blocks::1024          4096                       # Occupied blocks per task id
system.l2.tags.age_task_id_blocks_1024::0           23                       # Occupied blocks per task id
system.l2.tags.age_task_id_blocks_1024::1          193                       # Occupied blocks per task id
system.l2.tags.age_task_id_blocks_1024::2         1958                       # Occupied blocks per task id
system.l2.tags.age_task_id_blocks_1024::3         1919                       # Occupied blocks per task id
system.l2.tags.age_task_id_blocks_1024::4            3                       # Occupied blocks per task id
system.l2.tags.occ_task_id_percent::1024            1                       # Percentage of cache occupancy per task id
system.l2.tags.tag_accesses                   4225380                       # Number of tag accesses
system.l2.tags.data_accesses                  4225380                       # Number of data accesses
system.cpu_voltage_domain.voltage                   1                       # Voltage in Volts
system.mem_ctrls.pwrStateResidencyTicks::UNDEFINED 170846984000                       # Cumulative time (in ticks) in various power states
system.mem_ctrls.bytes_read::.cpu.inst          58368                       # Number of bytes read from this memory
system.mem_ctrls.bytes_read::.cpu.data       95236096                       # Number of bytes read from this memory
system.mem_ctrls.bytes_read::total           95294464                       # Number of bytes read from this memory
system.mem_ctrls.bytes_inst_read::.cpu.inst        58368                       # Number of instructions bytes read from this memory
system.mem_ctrls.bytes_inst_read::total         58368                       # Number of instructions bytes read from this memory
system.mem_ctrls.bytes_written::.writebacks     94178560                       # Number of bytes written to this memory
system.mem_ctrls.bytes_written::total        94178560                       # Number of bytes written to this memory
system.mem_ctrls.num_reads::.cpu.inst             228                       # Number of read requests responded to by this memory
system.mem_ctrls.num_reads::.cpu.data          372016                       # Number of read requests responded to by this memory
system.mem_ctrls.num_reads::total              372244                       # Number of read requests responded to by this memory
system.mem_ctrls.num_writes::.writebacks       367885                       # Number of write requests responded to by this memory
system.mem_ctrls.num_writes::total             367885                       # Number of write requests responded to by this memory
system.mem_ctrls.bw_read::.cpu.inst            341639                       # Total read bandwidth from this memory (bytes/s)
system.mem_ctrls.bw_read::.cpu.data         557435044                       # Total read bandwidth from this memory (bytes/s)
system.mem_ctrls.bw_read::total             557776683                       # Total read bandwidth from this memory (bytes/s)
system.mem_ctrls.bw_inst_read::.cpu.inst       341639                       # Instruction read bandwidth from this memory (bytes/s)
system.mem_ctrls.bw_inst_read::total           341639                       # Instruction read bandwidth from this memory (bytes/s)
system.mem_ctrls.bw_write::.writebacks      551245084                       # Write bandwidth from this memory (bytes/s)
system.mem_ctrls.bw_write::total            551245084                       # Write bandwidth from this memory (bytes/s)
system.mem_ctrls.bw_total::.writebacks      551245084                       # Total bandwidth to/from this memory (bytes/s)
system.mem_ctrls.bw_total::.cpu.inst           341639                       # Total bandwidth to/from this memory (bytes/s)
system.mem_ctrls.bw_total::.cpu.data        557435044                       # Total bandwidth to/from this memory (bytes/s)
system.mem_ctrls.bw_total::total           1109021767                       # Total bandwidth to/from this memory (bytes/s)
system.mem_ctrls.avgPriority_.writebacks::samples   1471540.00                       # Average QoS priority value for accepted requests
system.mem_ctrls.avgPriority_.cpu.inst::samples       912.00                       # Average QoS priority value for accepted requests
system.mem_ctrls.avgPriority_.cpu.data::samples   1488064.00                       # Average QoS priority value for accepted requests
system.mem_ctrls.priorityMinLatency      0.000000018750                       # per QoS priority minimum request to response latency (s)
system.mem_ctrls.priorityMaxLatency      0.000518378500                       # per QoS priority maximum request to response latency (s)
system.mem_ctrls.numReadWriteTurnArounds        73719                       # Number of turnarounds from READ to WRITE
system.mem_ctrls.numWriteReadTurnArounds        73719                       # Number of turnarounds from WRITE to READ
system.mem_ctrls.numStayReadState             2270546                       # Number of times bus staying in READ state
system.mem_ctrls.numStayWriteState            1399156                       # Number of times bus staying in WRITE state
system.mem_ctrls.readReqs                      372244                       # Number of read requests accepted
system.mem_ctrls.writeReqs                     367885                       # Number of write requests accepted
system.mem_ctrls.readBursts                   1488976                       # Number of DRAM read bursts, including those serviced by the write queue
system.mem_ctrls.writeBursts                  1471540                       # Number of DRAM write bursts, including those merged in the write queue
system.mem_ctrls.servicedByWrQ                      0                       # Number of DRAM read bursts serviced by the write queue
system.mem_ctrls.mergedWrBursts                     0                       # Number of DRAM write bursts merged with an existing one
system.mem_ctrls.neitherReadNorWriteReqs            0                       # Number of requests that are neither read nor write
system.mem_ctrls.perBankRdBursts::0             93040                       # Per bank write bursts
system.mem_ctrls.perBankRdBursts::1             93000                       # Per bank write bursts
system.mem_ctrls.perBankRdBursts::2             93184                       # Per bank write bursts
system.mem_ctrls.perBankRdBursts::3             93124                       # Per bank write bursts
system.mem_ctrls.perBankRdBursts::4             93132                       # Per bank write bursts
system.mem_ctrls.perBankRdBursts::5             93076                       # Per bank write bursts
system.mem_ctrls.perBankRdBursts::6             93124                       # Per bank write bursts
system.mem_ctrls.perBankRdBursts::7             93084                       # Per bank write bursts
system.mem_ctrls.perBankRdBursts::8             93156                       # Per bank write bursts
system.mem_ctrls.perBankRdBursts::9             93076                       # Per bank write bursts
system.mem_ctrls.perBankRdBursts::10            93008                       # Per bank write bursts
system.mem_ctrls.perBankRdBursts::11            92996                       # Per bank write bursts
system.mem_ctrls.perBankRdBursts::12            93056                       # Per bank write bursts
system.mem_ctrls.perBankRdBursts::13            92940                       # Per bank write bursts
system.mem_ctrls.perBankRdBursts::14            92952                       # Per bank write bursts
system.mem_ctrls.perBankRdBursts::15            93028                       # Per bank write bursts
system.mem_ctrls.perBankWrBursts::0             91936                       # Per bank write bursts
system.mem_ctrls.perBankWrBursts::1             91928                       # Per bank write bursts
system.mem_ctrls.perBankWrBursts::2             91972                       # Per bank write bursts
system.mem_ctrls.perBankWrBursts::3             92036                       # Per bank write bursts
system.mem_ctrls.perBankWrBursts::4             92032                       # Per bank write bursts
system.mem_ctrls.perBankWrBursts::5             92032                       # Per bank write bursts
system.mem_ctrls.perBankWrBursts::6             92032                       # Per bank write bursts
system.mem_ctrls.perBankWrBursts::7             92032                       # Per bank write bursts
system.mem_ctrls.perBankWrBursts::8             92032                       # Per bank write bursts
system.mem_ctrls.perBankWrBursts::9             91969                       # Per bank write bursts
system.mem_ctrls.perBankWrBursts::10            91904                       # Per bank write bursts
system.mem_ctrls.perBankWrBursts::11            91904                       # Per bank write bursts
system.mem_ctrls.perBankWrBursts::12            91904                       # Per bank write bursts
system.mem_ctrls.perBankWrBursts::13            91904                       # Per bank write bursts
system.mem_ctrls.perBankWrBursts::14            91916                       # Per bank write bursts
system.mem_ctrls.perBankWrBursts::15            91980                       # Per bank write bursts
system.mem_ctrls.avgRdQLen                       4.00                       # Average read queue length when enqueuing
system.mem_ctrls.avgWrQLen                      26.94                       # Average write queue length when enqueuing
system.mem_ctrls.totQLat                  33018986500                       # Total ticks spent queuing
system.mem_ctrls.totBusLat                 7444880000                       # Total ticks spent in databus transfers
system.mem_ctrls.totMemAccLat             60937286500                       # Total ticks spent from burst creation until serviced by the DRAM
system.mem_ctrls.avgQLat                     22175.63                       # Average queueing delay per DRAM burst
system.mem_ctrls.avgBusLat                    5000.00                       # Average bus latency per DRAM burst
system.mem_ctrls.avgMemAccLat                40925.63                       # Average memory access latency per DRAM burst
system.mem_ctrls.numRdRetry                         0                       # Number of times read queue was full causing retry
system.mem_ctrls.numWrRetry                         0                       # Number of times write queue was full causing retry
system.mem_ctrls.readRowHits                  1337657                       # Number of row buffer hits during reads
system.mem_ctrls.writeRowHits                 1323567                       # Number of row buffer hits during writes
system.mem_ctrls.readRowHitRate                 89.84                       # Row buffer hit rate for reads
system.mem_ctrls.writeRowHitRate                89.94                       # Row buffer hit rate for writes
system.mem_ctrls.readPktSize::0                     0                       # Read request sizes (log2)
system.mem_ctrls.readPktSize::1                     0                       # Read request sizes (log2)
system.mem_ctrls.readPktSize::2                     0                       # Read request sizes (log2)
system.mem_ctrls.readPktSize::3                     0                       # Read request sizes (log2)
system.mem_ctrls.readPktSize::4                     0                       # Read request sizes (log2)
system.mem_ctrls.readPktSize::5                     0                       # Read request sizes (log2)
system.mem_ctrls.readPktSize::6               1488976                       # Read request sizes (log2)
system.mem_ctrls.writePktSize::0                    0                       # Write request sizes (log2)
system.mem_ctrls.writePktSize::1                    0                       # Write request sizes (log2)
system.mem_ctrls.writePktSize::2                    0                       # Write request sizes (log2)
system.mem_ctrls.writePktSize::3                    0                       # Write request sizes (log2)
system.mem_ctrls.writePktSize::4                    0                       # Write request sizes (log2)
system.mem_ctrls.writePktSize::5                    0                       # Write request sizes (log2)
system.mem_ctrls.writePktSize::6              1471540                       # Write request sizes (log2)
system.mem_ctrls.rdQLenPdf::0                  372218                       # What read queue length does an incoming req see
system.mem_ctrls.rdQLenPdf::1                  372220                       # What read queue length does an incoming req see
system.mem_ctrls.rdQLenPdf::2                  372222                       # What read queue length does an incoming req see
system.mem_ctrls.rdQLenPdf::3                  372225                       # What read queue length does an incoming req see
system.mem_ctrls.rdQLenPdf::4                      25                       # What read queue length does an incoming req see
system.mem_ctrls.rdQLenPdf::5                      23                       # What read queue length does an incoming req see
system.mem_ctrls.rdQLenPdf::6                      22                       # What read queue length does an incoming req see
system.mem_ctrls.rdQLenPdf::7                      19                       # What read queue length does an incoming req see
system.mem_ctrls.rdQLenPdf::8                       1                       # What read queue length does an incoming req see
system.mem_ctrls.rdQLenPdf::9                       1                       # What read queue length does an incoming req see
system.mem_ctrls.rdQLenPdf::10                      0                       # What read queue length does an incoming req see
system.mem_ctrls.rdQLenPdf::11                      0                       # What read queue length does an incoming req see
system.mem_ctrls.rdQLenPdf::12                      0                       # What read queue length does an incoming req see
system.mem_ctrls.rdQLenPdf::13                      0                       # What read queue length does an incoming req see
system.mem_ctrls.rdQLenPdf::14                      0                       # What read queue length does an incoming req see
system.mem_ctrls.rdQLenPdf::15                      0                       # What read queue length does an incoming req see
system.mem_ctrls.rdQLenPdf::16                      0                       # What read queue length does an incoming req see
system.mem_ctrls.rdQLenPdf::17                      0                       # What read queue length does an incoming req see
system.mem_ctrls.rdQLenPdf::18                      0                       # What read queue length does an incoming req see
system.mem_ctrls.rdQLenPdf::19                      0                       # What read queue length does an incoming req see
system.mem_ctrls.rdQLenPdf::20                      0                       # What read queue length does an incoming req see
system.mem_ctrls.rdQLenPdf::21                      0                       # What read queue length does an incoming req see
system.mem_ctrls.rdQLenPdf::22                      0                       # What read queue length does an incoming req see
system.mem_ctrls.rdQLenPdf::23                      0                       # What read queue length does an incoming req see
system.mem_ctrls.rdQLenPdf::24                      0                       # What read queue length does an incoming req see
system.mem_ctrls.rdQLenPdf::25                      0                       # What read queue length does an incoming req see
system.mem_ctrls.rdQLenPdf::26                      0                       # What read queue length does an incoming req see
system.mem_ctrls.rdQLenPdf::27                      0                       # What read queue length does an incoming req see
system.mem_ctrls.rdQLenPdf::28                      0                       # What read queue length does an incoming req see
system.mem_ctrls.rdQLenPdf::29                      0                       # What read queue length does an incoming req see
system.mem_ctrls.rdQLenPdf::30                      0                       # What read queue length does an incoming req see
system.mem_ctrls.rdQLenPdf::31                      0                       # What read queue length does an incoming req see
system.mem_ctrls.wrQLenPdf::0                       1                       # What write queue length does an incoming req see
system.mem_ctrls.wrQLenPdf::1                       1                       # What write queue length does an incoming req see
system.mem_ctrls.wrQLenPdf::2                       1                       # What write queue length does an incoming req see
system.mem_ctrls.wrQLenPdf::3                       1                       # What write queue length does an incoming req see
system.mem_ctrls.wrQLenPdf::4                       1                       # What write queue length does an incoming req see
system.mem_ctrls.wrQLenPdf::5                       1                       # What write queue length does an incoming req see
system.mem_ctrls.wrQLenPdf::6                       1                       # What write queue length does an incoming req see
system.mem_ctrls.wrQLenPdf::7                       1                       # What write queue length does an incoming req see
system.mem_ctrls.wrQLenPdf::8                       1                       # What write queue length does an incoming req see
system.mem_ctrls.wrQLenPdf::9                       1                       # What write queue length does an incoming req see
system.mem_ctrls.wrQLenPdf::10                      1                       # What write queue length does an incoming req see
system.mem_ctrls.wrQLenPdf::11                      1                       # What write queue length does an incoming req see
system.mem_ctrls.wrQLenPdf::12                      1                       # What write queue length does an incoming req see
system.mem_ctrls.wrQLenPdf::13                      1                       # What write queue length does an incoming req see
system.mem_ctrls.wrQLenPdf::14                      1                       # What write queue length does an incoming req see
system.mem_ctrls.wrQLenPdf::15                  72931                       # What write queue length does an incoming req see
system.mem_ctrls.wrQLenPdf::16                  73003                       # What write queue length does an incoming req see
system.mem_ctrls.wrQLenPdf::17                  73290                       # What write queue length does an incoming req see
system.mem_ctrls.wrQLenPdf::18                  73290                       # What write queue length does an incoming req see
system.mem_ctrls.wrQLenPdf::19                  73720                       # What write queue length does an incoming req see
system.mem_ctrls.wrQLenPdf::20                  73720                       # What write queue length does an incoming req see
system.mem_ctrls.wrQLenPdf::21                  73720                       # What write queue length does an incoming req see
system.mem_ctrls.wrQLenPdf::22                  73720                       # What write queue length does an incoming req see
system.mem_ctrls.wrQLenPdf::23                  73720                       # What write queue length does an incoming req see
system.mem_ctrls.wrQLenPdf::24                  73720                       # What write queue length does an incoming req see
system.mem_ctrls.wrQLenPdf::25                  73720                       # What write queue length does an incoming req see
system.mem_ctrls.wrQLenPdf::26                  73720                       # What write queue length does an incoming req see
system.mem_ctrls.wrQLenPdf::27                  73719                       # What write queue length does an incoming req see
system.mem_ctrls.wrQLenPdf::28                  73719                       # What write queue length does an incoming req see
system.mem_ctrls.wrQLenPdf::29                  73719                       # What write queue length does an incoming req see
system.mem_ctrls.wrQLenPdf::30                  73719                       # What write queue length does an incoming req see
system.mem_ctrls.wrQLenPdf::31                  73719                       # What write queue length does an incoming req see
system.mem_ctrls.wrQLenPdf::32                  73719                       # What write queue length does an incoming req see
system.mem_ctrls.wrQLenPdf::33                  73432                       # What write queue length does an incoming req see
system.mem_ctrls.wrQLenPdf::34                  73432                       # What write queue length does an incoming req see
system.mem_ctrls.wrQLenPdf::35                     73                       # What write queue length does an incoming req see
system.mem_ctrls.wrQLenPdf::36                      0                       # What write queue length does an incoming req see
system.mem_ctrls.wrQLenPdf::37                      0                       # What write queue length does an incoming req see
system.mem_ctrls.wrQLenPdf::38                      0                       # What write queue length does an incoming req see
system.mem_ctrls.wrQLenPdf::39                      0                       # What write queue length does an incoming req see
system.mem_ctrls.wrQLenPdf::40                      0                       # What write queue length does an incoming req see
system.mem_ctrls.wrQLenPdf::41                      0                       # What write queue length does an incoming req see
system.mem_ctrls.wrQLenPdf::42                      0                       # What write queue length does an incoming req see
system.mem_ctrls.wrQLenPdf::43                      0                       # What write queue length does an incoming req see
system.mem_ctrls.wrQLenPdf::44                      0                       # What write queue length does an incoming req see
system.mem_ctrls.wrQLenPdf::45                      0                       # What write queue length does an incoming req see
system.mem_ctrls.wrQLenPdf::46                      0                       # What write queue length does an incoming req see
system.mem_ctrls.wrQLenPdf::47                      0                       # What write queue length does an incoming req see
system.mem_ctrls.wrQLenPdf::48                      0                       # What write queue length does an incoming req see
system.mem_ctrls.wrQLenPdf::49                      0                       # What write queue length does an incoming req see
system.mem_ctrls.wrQLenPdf::50                      0                       # What write queue length does an incoming req see
system.mem_ctrls.wrQLenPdf::51                      0                       # What write queue length does an incoming req see
system.mem_ctrls.wrQLenPdf::52                      0                       # What write queue length does an incoming req see
system.mem_ctrls.wrQLenPdf::53                      0                       # What write queue length does an incoming req see
system.mem_ctrls.wrQLenPdf::54                      0                       # What write queue length does an incoming req see
system.mem_ctrls.wrQLenPdf::55                      0                       # What write queue length does an incoming req see
system.mem_ctrls.wrQLenPdf::56                      0                       # What write queue length does an incoming req see
system.mem_ctrls.wrQLenPdf::57                      0                       # What write queue length does an incoming req see
system.mem_ctrls.wrQLenPdf::58                      0                       # What write queue length does an incoming req see
system.mem_ctrls.wrQLenPdf::59                      0                       # What write queue length does an incoming req see
system.mem_ctrls.wrQLenPdf::60                      0                       # What write queue length does an incoming req see
system.mem_ctrls.wrQLenPdf::61                      0                       # What write queue length does an incoming req see
system.mem_ctrls.wrQLenPdf::62                      0                       # What write queue length does an incoming req see
system.mem_ctrls.wrQLenPdf::63                      0                       # What write queue length does an incoming req see
system.mem_ctrls.bytesPerActivate::samples       299264                       # Bytes accessed per row activation
system.mem_ctrls.bytesPerActivate::mean    633.122541                       # Bytes accessed per row activation
system.mem_ctrls.bytesPerActivate::gmean   512.451888                       # Bytes accessed per row activation
system.mem_ctrls.bytesPerActivate::stdev   363.446169                       # Bytes accessed per row activation
system.mem_ctrls.bytesPerActivate::0-127         3668      1.23%      1.23% # Bytes accessed per row activation
system.mem_ctrls.bytesPerActivate::128-255         4495      1.50%      2.73% # Bytes accessed per row activation
system.mem_ctrls.bytesPerActivate::256-383       122245     40.85%     43.58% # Bytes accessed per row activation
system.mem_ctrls.bytesPerActivate::384-511         2657      0.89%     44.46% # Bytes accessed per row activation
system.mem_ctrls.bytesPerActivate::512-639        19056      6.37%     50.83% # Bytes accessed per row activation
system.mem_ctrls.bytesPerActivate::640-767         2370      0.79%     51.62% # Bytes accessed per row activation
system.mem_ctrls.bytesPerActivate::768-895        15746      5.26%     56.89% # Bytes accessed per row activation
system.mem_ctrls.bytesPerActivate::896-1023         4166      1.39%     58.28% # Bytes accessed per row activation
system.mem_ctrls.bytesPerActivate::1024-1151       124861     41.72%    100.00% # Bytes accessed per row activation
system.mem_ctrls.bytesPerActivate::total       299264                       # Bytes accessed per row activation
system.mem_ctrls.rdPerTurnAround::samples        73719                       # Reads before turning the bus around for writes
system.mem_ctrls.rdPerTurnAround::mean      20.197832                       # Reads before turning the bus around for writes
system.mem_ctrls.rdPerTurnAround::gmean     19.961109                       # Reads before turning the bus around for writes
system.mem_ctrls.rdPerTurnAround::stdev     56.186405                       # Reads before turning the bus around for writes
system.mem_ctrls.rdPerTurnAround::0-511         73717    100.00%    100.00% # Reads before turning the bus around for writes
system.mem_ctrls.rdPerTurnAround::2048-2559            1      0.00%    100.00% # Reads before turning the bus around for writes
system.mem_ctrls.rdPerTurnAround::14848-15359            1      0.00%    100.00% # Reads before turning the bus around for writes
system.mem_ctrls.rdPerTurnAround::total         73719                       # Reads before turning the bus around for writes
system.mem_ctrls.wrPerTurnAround::samples        73719                       # Writes before turning the bus around for reads
system.mem_ctrls.wrPerTurnAround::mean      19.961109                       # Writes before turning the bus around for reads
system.mem_ctrls.wrPerTurnAround::gmean     19.957570                       # Writes before turning the bus around for reads
system.mem_ctrls.wrPerTurnAround::stdev      0.353453                       # Writes before turning the bus around for reads
system.mem_ctrls.wrPerTurnAround::16              430      0.58%      0.58% # Writes before turning the bus around for reads
system.mem_ctrls.wrPerTurnAround::18              574      0.78%      1.36% # Writes before turning the bus around for reads
system.mem_ctrls.wrPerTurnAround::19               72      0.10%      1.46% # Writes before turning the bus around for reads
[...]
system.cpu.icache.tags.occ_blocks::.cpu.inst   197.972303                       # Average occupied blocks per requestor
system.cpu.icache.tags.occ_percent::.cpu.inst     0.386665                       # Average percentage of cache occupancy
system.cpu.icache.tags.occ_percent::total     0.386665                       # Average percentage of cache occupancy
system.cpu.icache.tags.occ_task_id_blocks::1024          198                       # Occupied blocks per task id
system.cpu.icache.tags.age_task_id_blocks_1024::4          198                       # Occupied blocks per task id
system.cpu.icache.tags.occ_task_id_percent::1024     0.386719                       # Percentage of cache occupancy per task id
system.cpu.icache.tags.tag_accesses           2983129                       # Number of tag accesses
system.cpu.icache.tags.data_accesses          2983129                       # Number of data accesses
system.cpu.dtb.walker.pwrStateResidencyTicks::UNDEFINED 170846984000                       # Cumulative time (in ticks) in various power states
system.cpu.dtb.stage2_mmu.stage2_tlb.walker.pwrStateResidencyTicks::UNDEFINED 170846984000                       # Cumulative time (in ticks) in various power states
system.cpu.dcache.pwrStateResidencyTicks::UNDEFINED 170846984000                       # Cumulative time (in ticks) in various power states
system.cpu.dcache.demand_hits::.cpu.data     47884013                       # number of demand (read+write) hits
system.cpu.dcache.demand_hits::total         47884013                       # number of demand (read+write) hits
system.cpu.dcache.overall_hits::.cpu.data     47884053                       # number of overall hits
system.cpu.dcache.overall_hits::total        47884053                       # number of overall hits
system.cpu.dcache.demand_misses::.cpu.data       922424                       # number of demand (read+write) misses
system.cpu.dcache.demand_misses::total         922424                       # number of demand (read+write) misses
system.cpu.dcache.overall_misses::.cpu.data       922436                       # number of overall misses
system.cpu.dcache.overall_misses::total        922436                       # number of overall misses
system.cpu.dcache.demand_miss_latency::.cpu.data 100561632000                       # number of demand (read+write) miss cycles
system.cpu.dcache.demand_miss_latency::total 100561632000                       # number of demand (read+write) miss cycles
system.cpu.dcache.overall_miss_latency::.cpu.data 100561632000                       # number of overall miss cycles
system.cpu.dcache.overall_miss_latency::total 100561632000                       # number of overall miss cycles
system.cpu.dcache.demand_accesses::.cpu.data     48806437                       # number of demand (read+write) accesses
system.cpu.dcache.demand_accesses::total     48806437                       # number of demand (read+write) accesses
system.cpu.dcache.overall_accesses::.cpu.data     48806489                       # number of overall (read+write) accesses
system.cpu.dcache.overall_accesses::total     48806489                       # number of overall (read+write) accesses
system.cpu.dcache.demand_miss_rate::.cpu.data     0.018900                       # miss rate for demand accesses
system.cpu.dcache.demand_miss_rate::total     0.018900                       # miss rate for demand accesses
system.cpu.dcache.overall_miss_rate::.cpu.data     0.018900                       # miss rate for overall accesses
system.cpu.dcache.overall_miss_rate::total     0.018900                       # miss rate for overall accesses
system.cpu.dcache.demand_avg_miss_latency::.cpu.data 109018.880688                       # average overall miss latency
system.cpu.dcache.demand_avg_miss_latency::total 109018.880688                       # average overall miss latency
system.cpu.dcache.overall_avg_miss_latency::.cpu.data 109017.462458                       # average overall miss latency
system.cpu.dcache.overall_avg_miss_latency::total 109017.462458                       # average overall miss latency
system.cpu.dcache.blocked_cycles::no_mshrs            0                       # number of cycles access was blocked
system.cpu.dcache.blocked_cycles::no_targets            0                       # number of cycles access was blocked
system.cpu.dcache.blocked::no_mshrs                 0                       # number of cycles access was blocked
system.cpu.dcache.blocked::no_targets               0                       # number of cycles access was blocked
system.cpu.dcache.avg_blocked_cycles::no_mshrs          nan                       # average number of cycles each access was blocked
system.cpu.dcache.avg_blocked_cycles::no_targets          nan                       # average number of cycles each access was blocked
system.cpu.dcache.writebacks::.writebacks       469657                       # number of writebacks
system.cpu.dcache.writebacks::total            469657                       # number of writebacks
system.cpu.dcache.demand_mshr_hits::.cpu.data       429212                       # number of demand (read+write) MSHR hits
system.cpu.dcache.demand_mshr_hits::total       429212                       # number of demand (read+write) MSHR hits
system.cpu.dcache.overall_mshr_hits::.cpu.data       429212                       # number of overall MSHR hits
system.cpu.dcache.overall_mshr_hits::total       429212                       # number of overall MSHR hits
system.cpu.dcache.demand_mshr_misses::.cpu.data       493212                       # number of demand (read+write) MSHR misses
system.cpu.dcache.demand_mshr_misses::total       493212                       # number of demand (read+write) MSHR misses
system.cpu.dcache.overall_mshr_misses::.cpu.data       493218                       # number of overall MSHR misses
system.cpu.dcache.overall_mshr_misses::total       493218                       # number of overall MSHR misses
system.cpu.dcache.demand_mshr_miss_latency::.cpu.data  51876216000                       # number of demand (read+write) MSHR miss cycles
system.cpu.dcache.demand_mshr_miss_latency::total  51876216000                       # number of demand (read+write) MSHR miss cycles
system.cpu.dcache.overall_mshr_miss_latency::.cpu.data  51876971000                       # number of overall MSHR miss cycles
system.cpu.dcache.overall_mshr_miss_latency::total  51876971000                       # number of overall MSHR miss cycles
system.cpu.dcache.demand_mshr_miss_rate::.cpu.data     0.010105                       # mshr miss rate for demand accesses
system.cpu.dcache.demand_mshr_miss_rate::total     0.010105                       # mshr miss rate for demand accesses
system.cpu.dcache.overall_mshr_miss_rate::.cpu.data     0.010106                       # mshr miss rate for overall accesses
system.cpu.dcache.overall_mshr_miss_rate::total     0.010106                       # mshr miss rate for overall accesses
system.cpu.dcache.demand_avg_mshr_miss_latency::.cpu.data 105180.360575                       # average overall mshr miss latency
system.cpu.dcache.demand_avg_mshr_miss_latency::total 105180.360575                       # average overall mshr miss latency
system.cpu.dcache.overall_avg_mshr_miss_latency::.cpu.data 105180.611819                       # average overall mshr miss latency
system.cpu.dcache.overall_avg_mshr_miss_latency::total 105180.611819                       # average overall mshr miss latency
system.cpu.dcache.replacements                 492963                       # number of replacements
system.cpu.dcache.ReadReq_hits::.cpu.data     35648373                       # number of ReadReq hits
system.cpu.dcache.ReadReq_hits::total        35648373                       # number of ReadReq hits
system.cpu.dcache.ReadReq_misses::.cpu.data        62547                       # number of ReadReq misses
system.cpu.dcache.ReadReq_misses::total         62547                       # number of ReadReq misses
system.cpu.dcache.ReadReq_miss_latency::.cpu.data   3013175000                       # number of ReadReq miss cycles
system.cpu.dcache.ReadReq_miss_latency::total   3013175000                       # number of ReadReq miss cycles
system.cpu.dcache.ReadReq_accesses::.cpu.data     35710920                       # number of ReadReq accesses(hits+misses)
system.cpu.dcache.ReadReq_accesses::total     35710920                       # number of ReadReq accesses(hits+misses)
system.cpu.dcache.ReadReq_miss_rate::.cpu.data     0.001751                       # miss rate for ReadReq accesses
system.cpu.dcache.ReadReq_miss_rate::total     0.001751                       # miss rate for ReadReq accesses
system.cpu.dcache.ReadReq_avg_miss_latency::.cpu.data 48174.572721                       # average ReadReq miss latency
system.cpu.dcache.ReadReq_avg_miss_latency::total 48174.572721                       # average ReadReq miss latency
system.cpu.dcache.ReadReq_mshr_hits::.cpu.data          587                       # number of ReadReq MSHR hits
system.cpu.dcache.ReadReq_mshr_hits::total          587                       # number of ReadReq MSHR hits
system.cpu.dcache.ReadReq_mshr_misses::.cpu.data        61960                       # number of ReadReq MSHR misses
system.cpu.dcache.ReadReq_mshr_misses::total        61960                       # number of ReadReq MSHR misses
system.cpu.dcache.ReadReq_mshr_miss_latency::.cpu.data   2853782000                       # number of ReadReq MSHR miss cycles
system.cpu.dcache.ReadReq_mshr_miss_latency::total   2853782000                       # number of ReadReq MSHR miss cycles
system.cpu.dcache.ReadReq_mshr_miss_rate::.cpu.data     0.001735                       # mshr miss rate for ReadReq accesses
system.cpu.dcache.ReadReq_mshr_miss_rate::total     0.001735                       # mshr miss rate for ReadReq accesses
system.cpu.dcache.ReadReq_avg_mshr_miss_latency::.cpu.data 46058.457069                       # average ReadReq mshr miss latency
system.cpu.dcache.ReadReq_avg_mshr_miss_latency::total 46058.457069                       # average ReadReq mshr miss latency
system.cpu.dcache.WriteReq_hits::.cpu.data     12235640                       # number of WriteReq hits
system.cpu.dcache.WriteReq_hits::total       12235640                       # number of WriteReq hits
system.cpu.dcache.WriteReq_misses::.cpu.data       859877                       # number of WriteReq misses
system.cpu.dcache.WriteReq_misses::total       859877                       # number of WriteReq misses
system.cpu.dcache.WriteReq_miss_latency::.cpu.data  97548457000                       # number of WriteReq miss cycles
system.cpu.dcache.WriteReq_miss_latency::total  97548457000                       # number of WriteReq miss cycles
system.cpu.dcache.WriteReq_accesses::.cpu.data     13095517                       # number of WriteReq accesses(hits+misses)
system.cpu.dcache.WriteReq_accesses::total     13095517                       # number of WriteReq accesses(hits+misses)
system.cpu.dcache.WriteReq_miss_rate::.cpu.data     0.065662                       # miss rate for WriteReq accesses
system.cpu.dcache.WriteReq_miss_rate::total     0.065662                       # miss rate for WriteReq accesses
system.cpu.dcache.WriteReq_avg_miss_latency::.cpu.data 113444.663597                       # average WriteReq miss latency
system.cpu.dcache.WriteReq_avg_miss_latency::total 113444.663597                       # average WriteReq miss latency
system.cpu.dcache.WriteReq_mshr_hits::.cpu.data       428625                       # number of WriteReq MSHR hits
system.cpu.dcache.WriteReq_mshr_hits::total       428625                       # number of WriteReq MSHR hits
system.cpu.dcache.WriteReq_mshr_misses::.cpu.data       431252                       # number of WriteReq MSHR misses
system.cpu.dcache.WriteReq_mshr_misses::total       431252                       # number of WriteReq MSHR misses
system.cpu.dcache.WriteReq_mshr_miss_latency::.cpu.data  49022434000                       # number of WriteReq MSHR miss cycles
system.cpu.dcache.WriteReq_mshr_miss_latency::total  49022434000                       # number of WriteReq MSHR miss cycles
system.cpu.dcache.WriteReq_mshr_miss_rate::.cpu.data     0.032931                       # mshr miss rate for WriteReq accesses
system.cpu.dcache.WriteReq_mshr_miss_rate::total     0.032931                       # mshr miss rate for WriteReq accesses
system.cpu.dcache.WriteReq_avg_mshr_miss_latency::.cpu.data 113674.682088                       # average WriteReq mshr miss latency
system.cpu.dcache.WriteReq_avg_mshr_miss_latency::total 113674.682088                       # average WriteReq mshr miss latency
system.cpu.dcache.SoftPFReq_hits::.cpu.data           40                       # number of SoftPFReq hits
system.cpu.dcache.SoftPFReq_hits::total            40                       # number of SoftPFReq hits
system.cpu.dcache.SoftPFReq_misses::.cpu.data           12                       # number of SoftPFReq misses
system.cpu.dcache.SoftPFReq_misses::total           12                       # number of SoftPFReq misses
system.cpu.dcache.SoftPFReq_accesses::.cpu.data           52                       # number of SoftPFReq accesses(hits+misses)
system.cpu.dcache.SoftPFReq_accesses::total           52                       # number of SoftPFReq accesses(hits+misses)
system.cpu.dcache.SoftPFReq_miss_rate::.cpu.data     0.230769                       # miss rate for SoftPFReq accesses
system.cpu.dcache.SoftPFReq_miss_rate::total     0.230769                       # miss rate for SoftPFReq accesses
system.cpu.dcache.SoftPFReq_mshr_misses::.cpu.data            6                       # number of SoftPFReq MSHR misses
system.cpu.dcache.SoftPFReq_mshr_misses::total            6                       # number of SoftPFReq MSHR misses
system.cpu.dcache.SoftPFReq_mshr_miss_latency::.cpu.data       755000                       # number of SoftPFReq MSHR miss cycles
system.cpu.dcache.SoftPFReq_mshr_miss_latency::total       755000                       # number of SoftPFReq MSHR miss cycles
system.cpu.dcache.SoftPFReq_mshr_miss_rate::.cpu.data     0.115385                       # mshr miss rate for SoftPFReq accesses
system.cpu.dcache.SoftPFReq_mshr_miss_rate::total     0.115385                       # mshr miss rate for SoftPFReq accesses
system.cpu.dcache.SoftPFReq_avg_mshr_miss_latency::.cpu.data 125833.333333                       # average SoftPFReq mshr miss latency
system.cpu.dcache.SoftPFReq_avg_mshr_miss_latency::total 125833.333333                       # average SoftPFReq mshr miss latency
system.cpu.dcache.LoadLockedReq_hits::.cpu.data           13                       # number of LoadLockedReq hits
system.cpu.dcache.LoadLockedReq_hits::total           13                       # number of LoadLockedReq hits
system.cpu.dcache.LoadLockedReq_misses::.cpu.data            1                       # number of LoadLockedReq misses
system.cpu.dcache.LoadLockedReq_misses::total            1                       # number of LoadLockedReq misses
system.cpu.dcache.LoadLockedReq_miss_latency::.cpu.data       110000                       # number of LoadLockedReq miss cycles
system.cpu.dcache.LoadLockedReq_miss_latency::total       110000                       # number of LoadLockedReq miss cycles
system.cpu.dcache.LoadLockedReq_accesses::.cpu.data           14                       # number of LoadLockedReq accesses(hits+misses)
system.cpu.dcache.LoadLockedReq_accesses::total           14                       # number of LoadLockedReq accesses(hits+misses)
system.cpu.dcache.LoadLockedReq_miss_rate::.cpu.data     0.071429                       # miss rate for LoadLockedReq accesses
system.cpu.dcache.LoadLockedReq_miss_rate::total     0.071429                       # miss rate for LoadLockedReq accesses
system.cpu.dcache.LoadLockedReq_avg_miss_latency::.cpu.data       110000                       # average LoadLockedReq miss latency
system.cpu.dcache.LoadLockedReq_avg_miss_latency::total       110000                       # average LoadLockedReq miss latency
system.cpu.dcache.LoadLockedReq_mshr_misses::.cpu.data            1                       # number of LoadLockedReq MSHR misses
system.cpu.dcache.LoadLockedReq_mshr_misses::total            1                       # number of LoadLockedReq MSHR misses
system.cpu.dcache.LoadLockedReq_mshr_miss_latency::.cpu.data       108000                       # number of LoadLockedReq MSHR miss cycles
system.cpu.dcache.LoadLockedReq_mshr_miss_latency::total       108000                       # number of LoadLockedReq MSHR miss cycles
system.cpu.dcache.LoadLockedReq_mshr_miss_rate::.cpu.data     0.071429                       # mshr miss rate for LoadLockedReq accesses
system.cpu.dcache.LoadLockedReq_mshr_miss_rate::total     0.071429                       # mshr miss rate for LoadLockedReq accesses
system.cpu.dcache.LoadLockedReq_avg_mshr_miss_latency::.cpu.data       108000                       # average LoadLockedReq mshr miss latency
system.cpu.dcache.LoadLockedReq_avg_mshr_miss_latency::total       108000                       # average LoadLockedReq mshr miss latency
system.cpu.dcache.StoreCondReq_hits::.cpu.data           14                       # number of StoreCondReq hits
system.cpu.dcache.StoreCondReq_hits::total           14                       # number of StoreCondReq hits
system.cpu.dcache.StoreCondReq_accesses::.cpu.data           14                       # number of StoreCondReq accesses(hits+misses)
system.cpu.dcache.StoreCondReq_accesses::total           14                       # number of StoreCondReq accesses(hits+misses)
system.cpu.dcache.tags.pwrStateResidencyTicks::UNDEFINED 170846984000                       # Cumulative time (in ticks) in various power states
system.cpu.dcache.tags.tagsinuse           255.871607                       # Cycle average of tags in use
system.cpu.dcache.tags.total_refs            48377299                       # Total number of references to valid blocks.
system.cpu.dcache.tags.sampled_refs            493219                       # Sample count of references to valid blocks.
system.cpu.dcache.tags.avg_refs             98.084824                       # Average number of references to valid blocks.
system.cpu.dcache.tags.warmup_cycle            285000                       # Cycle when the warmup percentage was hit.
system.cpu.dcache.tags.occ_blocks::.cpu.data   255.871607                       # Average occupied blocks per requestor
system.cpu.dcache.tags.occ_percent::.cpu.data     0.999498                       # Average percentage of cache occupancy
system.cpu.dcache.tags.occ_percent::total     0.999498                       # Average percentage of cache occupancy
system.cpu.dcache.tags.occ_task_id_blocks::1024          256                       # Occupied blocks per task id
system.cpu.dcache.tags.age_task_id_blocks_1024::0           23                       # Occupied blocks per task id
system.cpu.dcache.tags.age_task_id_blocks_1024::1          193                       # Occupied blocks per task id
system.cpu.dcache.tags.age_task_id_blocks_1024::2           40                       # Occupied blocks per task id
system.cpu.dcache.tags.occ_task_id_percent::1024            1                       # Percentage of cache occupancy per task id
system.cpu.dcache.tags.tag_accesses          49299736                       # Number of tag accesses
system.cpu.dcache.tags.data_accesses         49299736                       # Number of data accesses
system.cpu.itb.walker.pwrStateResidencyTicks::UNDEFINED 170846984000                       # Cumulative time (in ticks) in various power states
system.cpu.itb.stage2_mmu.stage2_tlb.walker.pwrStateResidencyTicks::UNDEFINED 170846984000                       # Cumulative time (in ticks) in various power states

---------- End Simulation Statistics   ----------
