
---------- Begin Simulation Statistics ----------
final_tick                               264175487000                       # Number of ticks from beginning of simulation (restored from checkpoints and never reset)
host_inst_rate                                 234095                       # Simulator instruction rate (inst/s)
host_mem_usage                                 706960                       # Number of bytes of host memory used
host_op_rate                                   431147                       # Simulator op (including micro ops) rate (op/s)
host_seconds                                   427.18                       # Real time elapsed on the host
host_tick_rate                              618420801                       # Simulator tick rate (ticks/s)
sim_freq                                 1000000000000                       # Frequency of simulated ticks
sim_insts                                   100000001                       # Number of instructions simulated
sim_ops                                     184176409                       # Number of ops (including micro ops) simulated
sim_seconds                                  0.264175                       # Number of seconds simulated
sim_ticks                                264175487000                       # Number of ticks simulated
system.cpu.branchPred.BTBCorrect                    0                       # Number of correct BTB predictions (this stat may not work properly.
system.cpu.branchPred.BTBHitPct             99.955451                       # BTB Hit Percentage
system.cpu.branchPred.BTBHits                10561284                       # Number of BTB hits
system.cpu.branchPred.BTBLookups             10565991                       # Number of BTB lookups
system.cpu.branchPred.RASInCorrect                  5                       # Number of incorrect RAS predictions.
system.cpu.branchPred.condIncorrect              1454                       # Number of conditional branches incorrect
system.cpu.branchPred.condPredicted          10562307                       # Number of conditional branches predicted
system.cpu.branchPred.indirectHits                 29                       # Number of indirect target hits.
system.cpu.branchPred.indirectLookups             202                       # Number of indirect predictor lookups.
system.cpu.branchPred.indirectMisses              173                       # Number of indirect misses.
system.cpu.branchPred.lookups                10570600                       # Number of BP lookups
system.cpu.branchPred.usedRAS                    2707                       # Number of times the RAS was used to get a target.
system.cpu.branchPredindirectMispredicted          101                       # Number of mispredicted indirect branches.
system.cpu.committedInsts                   100000001                       # Number of instructions committed
system.cpu.committedOps                     184176409                       # Number of ops (including micro ops) committed
system.cpu.cpi                               2.641755                       # CPI: cycles per instruction
system.cpu.discardedOps                          4289                       # Number of ops (including micro ops) which were discarded before commit
system.cpu.dtb.accesses                             0                       # DTB accesses
system.cpu.dtb.align_faults                         0                       # Number of TLB faults due to alignment restrictions
system.cpu.dtb.domain_faults                        0                       # Number of TLB faults due to domain restrictions
system.cpu.dtb.flush_entries                        0                       # Number of entries that have been flushed from TLB
system.cpu.dtb.flush_tlb                            0                       # Number of times complete TLB was flushed
system.cpu.dtb.flush_tlb_asid                       0                       # Number of times TLB was flushed by ASID
system.cpu.dtb.flush_tlb_mva                        0                       # Number of times TLB was flushed by MVA
system.cpu.dtb.flush_tlb_mva_asid                   0                       # Number of times TLB was flushed by MVA & ASID
system.cpu.dtb.hits                                 0                       # DTB hits
system.cpu.dtb.inst_accesses                        0                       # ITB inst accesses
system.cpu.dtb.inst_hits                            0                       # ITB inst hits
system.cpu.dtb.inst_misses                          0                       # ITB inst misses
system.cpu.dtb.misses                               0                       # DTB misses
system.cpu.dtb.perms_faults                         0                       # Number of TLB faults due to permissions restrictions
system.cpu.dtb.prefetch_faults                      0                       # Number of TLB faults due to prefetch
system.cpu.dtb.read_accesses                        0                       # DTB read accesses
system.cpu.dtb.read_hits                            0                       # DTB read hits
system.cpu.dtb.read_misses                          0                       # DTB read misses
system.cpu.dtb.stage2_mmu.stage2_tlb.accesses            0                       # DTB accesses
system.cpu.dtb.stage2_mmu.stage2_tlb.align_faults            0                       # Number of TLB faults due to alignment restrictions
system.cpu.dtb.stage2_mmu.stage2_tlb.domain_faults            0                       # Number of TLB faults due to domain restrictions
system.cpu.dtb.stage2_mmu.stage2_tlb.flush_entries            0                       # Number of entries that have been flushed from TLB
system.cpu.dtb.stage2_mmu.stage2_tlb.flush_tlb            0                       # Number of times complete TLB was flushed
system.cpu.dtb.stage2_mmu.stage2_tlb.flush_tlb_asid            0                       # Number of times TLB was flushed by ASID
system.cpu.dtb.stage2_mmu.stage2_tlb.flush_tlb_mva            0                       # Number of times TLB was flushed by MVA
system.cpu.dtb.stage2_mmu.stage2_tlb.flush_tlb_mva_asid            0                       # Number of times TLB was flushed by MVA & ASID
system.cpu.dtb.stage2_mmu.stage2_tlb.hits            0                       # DTB hits
system.cpu.dtb.stage2_mmu.stage2_tlb.inst_accesses            0                       # ITB inst accesses
system.cpu.dtb.stage2_mmu.stage2_tlb.inst_hits            0                       # ITB inst hits
system.cpu.dtb.stage2_mmu.stage2_tlb.inst_misses            0                       # ITB inst misses
system.cpu.dtb.stage2_mmu.stage2_tlb.misses            0                       # DTB misses
system.cpu.dtb.stage2_mmu.stage2_tlb.perms_faults            0                       # Number of TLB faults due to permissions restrictions
system.cpu.dtb.stage2_mmu.stage2_tlb.prefetch_faults            0                       # Number of TLB faults due to prefetch
system.cpu.dtb.stage2_mmu.stage2_tlb.read_accesses            0                       # DTB read accesses
system.cpu.dtb.stage2_mmu.stage2_tlb.read_hits            0                       # DTB read hits
system.cpu.dtb.stage2_mmu.stage2_tlb.read_misses            0                       # DTB read misses
system.cpu.dtb.stage2_mmu.stage2_tlb.walker.walkRequestOrigin_Requested::Data            0                       # Table walker requests started/completed, data/inst
system.cpu.dtb.stage2_mmu.stage2_tlb.walker.walkRequestOrigin_Requested::Inst            0                       # Table walker requests started/completed, data/inst
system.cpu.dtb.stage2_mmu.stage2_tlb.walker.walkRequestOrigin_Requested::total            0                       # Table walker requests started/completed, data/inst
system.cpu.dtb.stage2_mmu.stage2_tlb.walker.walkRequestOrigin_Completed::Data            0                       # Table walker requests started/completed, data/inst
system.cpu.dtb.stage2_mmu.stage2_tlb.walker.walkRequestOrigin_Completed::Inst            0                       # Table walker requests started/completed, data/inst
system.cpu.dtb.stage2_mmu.stage2_tlb.walker.walkRequestOrigin_Completed::total            0                       # Table walker requests started/completed, data/inst
system.cpu.dtb.stage2_mmu.stage2_tlb.walker.walkRequestOrigin::total            0                       # Table walker requests started/completed, data/inst
system.cpu.dtb.stage2_mmu.stage2_tlb.walker.walks            0                       # Table walker walks requested
system.cpu.dtb.stage2_mmu.stage2_tlb.write_accesses            0                       # DTB write accesses
system.cpu.dtb.stage2_mmu.stage2_tlb.write_hits            0                       # DTB write hits
system.cpu.dtb.stage2_mmu.stage2_tlb.write_misses            0                       # DTB write misses
system.cpu.dtb.walker.walkRequestOrigin_Requested::Data            0                       # Table walker requests started/completed, data/inst
system.cpu.dtb.walker.walkRequestOrigin_Requested::Inst            0                       # Table walker requests started/completed, data/inst
system.cpu.dtb.walker.walkRequestOrigin_Requested::total            0                       # Table walker requests started/completed, data/inst
system.cpu.dtb.walker.walkRequestOrigin_Completed::Data            0                       # Table walker requests started/completed, data/inst
system.cpu.dtb.walker.walkRequestOrigin_Completed::Inst            0                       # Table walker requests started/completed, data/inst
system.cpu.dtb.walker.walkRequestOrigin_Completed::total            0                       # Table walker requests started/completed, data/inst
system.cpu.dtb.walker.walkRequestOrigin::total            0                       # Table walker requests started/completed, data/inst
system.cpu.dtb.walker.walks                         0                       # Table walker walks requested
system.cpu.dtb.write_accesses                       0                       # DTB write accesses
system.cpu.dtb.write_hits                           0                       # DTB write hits
system.cpu.dtb.write_misses                         0                       # DTB write misses
system.cpu.fetch2.amo_instructions                  0                       # Number of memory atomic instructions successfully decoded
system.cpu.fetch2.fp_instructions                   0                       # Number of floating point instructions successfully decoded
system.cpu.fetch2.int_instructions           44894244                       # Number of integer instructions successfully decoded
system.cpu.fetch2.load_instructions           2086383                       # Number of memory load instructions successfully decoded
system.cpu.fetch2.store_instructions           169216                       # Number of memory store instructions successfully decoded
system.cpu.fetch2.vec_instructions                  0                       # Number of SIMD instructions successfully decoded
system.cpu.idleCycles                        48042305                       # Total number of cycles that the object has spent stopped
system.cpu.ipc                               0.378536                       # IPC: instructions per cycle
system.cpu.itb.accesses                             0                       # DTB accesses
system.cpu.itb.align_faults                         0                       # Number of TLB faults due to alignment restrictions
system.cpu.itb.domain_faults                        0                       # Number of TLB faults due to domain restrictions
system.cpu.itb.flush_entries                        0                       # Number of entries that have been flushed from TLB
system.cpu.itb.flush_tlb                            0                       # Number of times complete TLB was flushed
system.cpu.itb.flush_tlb_asid                       0                       # Number of times TLB was flushed by ASID
system.cpu.itb.flush_tlb_mva                        0                       # Number of times TLB was flushed by MVA
system.cpu.itb.flush_tlb_mva_asid                   0                       # Number of times TLB was flushed by MVA & ASID
system.cpu.itb.hits                                 0                       # DTB hits
system.cpu.itb.inst_accesses                        0                       # ITB inst accesses
system.cpu.itb.inst_hits                            0                       # ITB inst hits
system.cpu.itb.inst_misses                          0                       # ITB inst misses
system.cpu.itb.misses                               0                       # DTB misses
system.cpu.itb.perms_faults                         0                       # Number of TLB faults due to permissions restrictions
system.cpu.itb.prefetch_faults                      0                       # Number of TLB faults due to prefetch
system.cpu.itb.read_accesses                        0                       # DTB read accesses
system.cpu.itb.read_hits                            0                       # DTB read hits
system.cpu.itb.read_misses                          0                       # DTB read misses
system.cpu.itb.stage2_mmu.stage2_tlb.accesses            0                       # DTB accesses
system.cpu.itb.stage2_mmu.stage2_tlb.align_faults            0                       # Number of TLB faults due to alignment restrictions
system.cpu.itb.stage2_mmu.stage2_tlb.domain_faults            0                       # Number of TLB faults due to domain restrictions
system.cpu.itb.stage2_mmu.stage2_tlb.flush_entries            0                       # Number of entries that have been flushed from TLB
system.cpu.itb.stage2_mmu.stage2_tlb.flush_tlb            0                       # Number of times complete TLB was flushed
system.cpu.itb.stage2_mmu.stage2_tlb.flush_tlb_asid            0                       # Number of times TLB was flushed by ASID
system.cpu.itb.stage2_mmu.stage2_tlb.flush_tlb_mva            0                       # Number of times TLB was flushed by MVA
system.cpu.itb.stage2_mmu.stage2_tlb.flush_tlb_mva_asid            0                       # Number of times TLB was flushed by MVA & ASID
system.cpu.itb.stage2_mmu.stage2_tlb.hits            0                       # DTB hits
system.cpu.itb.stage2_mmu.stage2_tlb.inst_accesses            0                       # ITB inst accesses
system.cpu.itb.stage2_mmu.stage2_tlb.inst_hits            0                       # ITB inst hits
system.cpu.itb.stage2_mmu.stage2_tlb.inst_misses            0                       # ITB inst misses
system.cpu.itb.stage2_mmu.stage2_tlb.misses            0                       # DTB misses
system.cpu.itb.stage2_mmu.stage2_tlb.perms_faults            0                       # Number of TLB faults due to permissions restrictions
system.cpu.itb.stage2_mmu.stage2_tlb.prefetch_faults            0                       # Number of TLB faults due to prefetch
system.cpu.itb.stage2_mmu.stage2_tlb.read_accesses            0                       # DTB read accesses
system.cpu.itb.stage2_mmu.stage2_tlb.read_hits            0                       # DTB read hits
system.cpu.itb.stage2_mmu.stage2_tlb.read_misses            0                       # DTB read misses
system.cpu.itb.stage2_mmu.stage2_tlb.walker.walkRequestOrigin_Requested::Data            0                       # Table walker requests started/completed, data/inst
system.cpu.itb.stage2_mmu.stage2_tlb.walker.walkRequestOrigin_Requested::Inst            0                       # Table walker requests started/completed, data/inst
system.cpu.itb.stage2_mmu.stage2_tlb.walker.walkRequestOrigin_Requested::total            0                       # Table walker requests started/completed, data/inst
system.cpu.itb.stage2_mmu.stage2_tlb.walker.walkRequestOrigin_Completed::Data            0                       # Table walker requests started/completed, data/inst
system.cpu.itb.stage2_mmu.stage2_tlb.walker.walkRequestOrigin_Completed::Inst            0                       # Table walker requests started/completed, data/inst
system.cpu.itb.stage2_mmu.stage2_tlb.walker.walkRequestOrigin_Completed::total            0                       # Table walker requests started/completed, data/inst
system.cpu.itb.stage2_mmu.stage2_tlb.walker.walkRequestOrigin::total            0                       # Table walker requests started/completed, data/inst
system.cpu.itb.stage2_mmu.stage2_tlb.walker.walks            0                       # Table walker walks requested
system.cpu.itb.stage2_mmu.stage2_tlb.write_accesses            0                       # DTB write accesses
system.cpu.itb.stage2_mmu.stage2_tlb.write_hits            0                       # DTB write hits
system.cpu.itb.stage2_mmu.stage2_tlb.write_misses            0                       # DTB write misses
system.cpu.itb.walker.walkRequestOrigin_Requested::Data            0                       # Table walker requests started/completed, data/inst
system.cpu.itb.walker.walkRequestOrigin_Requested::Inst            0                       # Table walker requests started/completed, data/inst
system.cpu.itb.walker.walkRequestOrigin_Requested::total            0                       # Table walker requests started/completed, data/inst
system.cpu.itb.walker.walkRequestOrigin_Completed::Data            0                       # Table walker requests started/completed, data/inst
system.cpu.itb.walker.walkRequestOrigin_Completed::Inst            0                       # Table walker requests started/completed, data/inst
system.cpu.itb.walker.walkRequestOrigin_Completed::total            0                       # Table walker requests started/completed, data/inst
system.cpu.itb.walker.walkRequestOrigin::total            0                       # Table walker requests started/completed, data/inst
system.cpu.itb.walker.walks                         0                       # Table walker walks requested
system.cpu.itb.write_accesses                       0                       # DTB write accesses
system.cpu.itb.write_hits                           0                       # DTB write hits
system.cpu.itb.write_misses                         0                       # DTB write misses
system.cpu.numCycles                        264175487                       # number of cpu cycles simulated
system.cpu.numFetchSuspends                         0                       # Number of times Execute suspended instruction fetching
system.cpu.numWorkItemsCompleted                    0                       # number of work items this cpu completed
system.cpu.numWorkItemsStarted                      0                       # number of work items this cpu started
system.cpu.op_class_0::No_OpClass                   0      0.00%      0.00% # Class of committed instruction
system.cpu.op_class_0::IntAlu                97640473     53.01%     53.01% # Class of committed instruction
system.cpu.op_class_0::IntMult                 114699      0.06%     53.08% # Class of committed instruction
system.cpu.op_class_0::IntDiv                       0      0.00%     53.08% # Class of committed instruction
system.cpu.op_class_0::FloatAdd                     0      0.00%     53.08% # Class of committed instruction
system.cpu.op_class_0::FloatCmp                     0      0.00%     53.08% # Class of committed instruction
system.cpu.op_class_0::FloatCvt                     0      0.00%     53.08% # Class of committed instruction
system.cpu.op_class_0::FloatMult                    0      0.00%     53.08% # Class of committed instruction
system.cpu.op_class_0::FloatMultAcc                 0      0.00%     53.08% # Class of committed instruction
system.cpu.op_class_0::FloatDiv                     0      0.00%     53.08% # Class of committed instruction
system.cpu.op_class_0::FloatMisc                    0      0.00%     53.08% # Class of committed instruction
system.cpu.op_class_0::FloatSqrt                    0      0.00%     53.08% # Class of committed instruction
system.cpu.op_class_0::SimdAdd                      8      0.00%     53.08% # Class of committed instruction
system.cpu.op_class_0::SimdAddAcc                   0      0.00%     53.08% # Class of committed instruction
system.cpu.op_class_0::SimdAlu                      8      0.00%     53.08% # Class of committed instruction
system.cpu.op_class_0::SimdCmp                      6      0.00%     53.08% # Class of committed instruction
system.cpu.op_class_0::SimdCvt                      0      0.00%     53.08% # Class of committed instruction
system.cpu.op_class_0::SimdMisc                     1      0.00%     53.08% # Class of committed instruction
system.cpu.op_class_0::SimdMult                     0      0.00%     53.08% # Class of committed instruction
system.cpu.op_class_0::SimdMultAcc                  0      0.00%     53.08% # Class of committed instruction
system.cpu.op_class_0::SimdShift                    0      0.00%     53.08% # Class of committed instruction
system.cpu.op_class_0::SimdShiftAcc                 0      0.00%     53.08% # Class of committed instruction
system.cpu.op_class_0::SimdDiv                      0      0.00%     53.08% # Class of committed instruction
system.cpu.op_class_0::SimdSqrt                     0      0.00%     53.08% # Class of committed instruction
system.cpu.op_class_0::SimdFloatAdd                 0      0.00%     53.08% # Class of committed instruction
system.cpu.op_class_0::SimdFloatAlu                 0      0.00%     53.08% # Class of committed instruction
system.cpu.op_class_0::SimdFloatCmp                 0      0.00%     53.08% # Class of committed instruction
system.cpu.op_class_0::SimdFloatCvt                 0      0.00%     53.08% # Class of committed instruction
system.cpu.op_class_0::SimdFloatDiv                 0      0.00%     53.08% # Class of committed instruction
system.cpu.op_class_0::SimdFloatMisc                6      0.00%     53.08% # Class of committed instruction
system.cpu.op_class_0::SimdFloatMult                0      0.00%     53.08% # Class of committed instruction
system.cpu.op_class_0::SimdFloatMultAcc             0      0.00%     53.08% # Class of committed instruction
system.cpu.op_class_0::SimdFloatSqrt                0      0.00%     53.08% # Class of committed instruction
system.cpu.op_class_0::SimdReduceAdd                0      0.00%     53.08% # Class of committed instruction
system.cpu.op_class_0::SimdReduceAlu                0      0.00%     53.08% # Class of committed instruction
system.cpu.op_class_0::SimdReduceCmp                0      0.00%     53.08% # Class of committed instruction
system.cpu.op_class_0::SimdFloatReduceAdd            0      0.00%     53.08% # Class of committed instruction
system.cpu.op_class_0::SimdFloatReduceCmp            0      0.00%     53.08% # Class of committed instruction
system.cpu.op_class_0::SimdAes                      0      0.00%     53.08% # Class of committed instruction
system.cpu.op_class_0::SimdAesMix                   0      0.00%     53.08% # Class of committed instruction
system.cpu.op_class_0::SimdSha1Hash                 0      0.00%     53.08% # Class of committed instruction
system.cpu.op_class_0::SimdSha1Hash2                0      0.00%     53.08% # Class of committed instruction
system.cpu.op_class_0::SimdSha256Hash               0      0.00%     53.08% # Class of committed instruction
system.cpu.op_class_0::SimdSha256Hash2              0      0.00%     53.08% # Class of committed instruction
system.cpu.op_class_0::SimdShaSigma2                0      0.00%     53.08% # Class of committed instruction
system.cpu.op_class_0::SimdShaSigma3                0      0.00%     53.08% # Class of committed instruction
system.cpu.op_class_0::SimdPredAlu                  0      0.00%     53.08% # Class of committed instruction
system.cpu.op_class_0::MemRead                2082588      1.13%     54.21% # Class of committed instruction
system.cpu.op_class_0::MemWrite              84338620     45.79%    100.00% # Class of committed instruction
system.cpu.op_class_0::FloatMemRead                 0      0.00%    100.00% # Class of committed instruction
system.cpu.op_class_0::FloatMemWrite                0      0.00%    100.00% # Class of committed instruction
system.cpu.op_class_0::IprAccess                    0      0.00%    100.00% # Class of committed instruction
system.cpu.op_class_0::InstPrefetch                 0      0.00%    100.00% # Class of committed instruction
system.cpu.op_class_0::total                184176409                       # Class of committed instruction
system.cpu.tickCycles                       216133182                       # Number of cycles that the object actually ticked
system.cpu.workload.numSyscalls                    19                       # Number of system calls
system.membus.snoop_filter.hit_multi_requests            0                       # Number of requests hitting in the snoop filter with multiple (>1) holders of the requested data.
system.membus.snoop_filter.hit_multi_snoops            0                       # Number of snoops hitting in the snoop filter with multiple (>1) holders of the requested data.
system.membus.snoop_filter.hit_single_requests       165449                       # Number of requests hitting in the snoop filter with a single holder of the requested data.
system.membus.snoop_filter.hit_single_snoops            0                       # Number of snoops hitting in the snoop filter with a single holder of the requested data.
system.membus.snoop_filter.tot_requests        331405                       # Total number of requests made to the snoop filter.
system.membus.snoop_filter.tot_snoops               0                       # Total number of snoops made to the snoop filter.
system.tol2bus.snoop_filter.hit_multi_requests         4302                       # Number of requests hitting in the snoop filter with multiple (>1) holders of the requested data.
system.tol2bus.snoop_filter.hit_multi_snoops            0                       # Number of snoops hitting in the snoop filter with multiple (>1) holders of the requested data.
system.tol2bus.snoop_filter.hit_single_requests       186154                       # Number of requests hitting in the snoop filter with a single holder of the requested data.
system.tol2bus.snoop_filter.hit_single_snoops           39                       # Number of snoops hitting in the snoop filter with a single holder of the requested data.
system.tol2bus.snoop_filter.tot_requests       372340                       # Total number of requests made to the snoop filter.
system.tol2bus.snoop_filter.tot_snoops             39                       # Total number of snoops made to the snoop filter.
system.membus.pwrStateResidencyTicks::UNDEFINED 264175487000                       # Cumulative time (in ticks) in various power states
system.membus.trans_dist::ReadResp                184                       # Transaction distribution
system.membus.trans_dist::WritebackDirty       164283                       # Transaction distribution
system.membus.trans_dist::CleanEvict              152                       # Transaction distribution
system.membus.trans_dist::ReadExReq            164530                       # Transaction distribution
system.membus.trans_dist::ReadExResp           164530                       # Transaction distribution
system.membus.trans_dist::ReadSharedReq           184                       # Transaction distribution
system.membus.pkt_count_system.l2.mem_side::system.mem_ctrls.port       493863                       # Packet count per connected master and slave (bytes)
system.membus.pkt_count::total                 493863                       # Packet count per connected master and slave (bytes)
system.membus.pkt_size_system.l2.mem_side::system.mem_ctrls.port    673785856                       # Cumulative packet size per connected master and slave (bytes)
system.membus.pkt_size::total               673785856                       # Cumulative packet size per connected master and slave (bytes)
system.membus.snoops                                0                       # Total snoops (count)
system.membus.snoopTraffic                          0                       # Total snoop traffic (bytes)
system.membus.snoop_fanout::samples            165995                       # Request fanout histogram
system.membus.snoop_fanout::mean                    0                       # Request fanout histogram
system.membus.snoop_fanout::stdev                   0                       # Request fanout histogram
system.membus.snoop_fanout::underflows              0      0.00%      0.00% # Request fanout histogram
system.membus.snoop_fanout::0                  165995    100.00%    100.00% # Request fanout histogram
system.membus.snoop_fanout::1                       0      0.00%    100.00% # Request fanout histogram
system.membus.snoop_fanout::overflows               0      0.00%    100.00% # Request fanout histogram
system.membus.snoop_fanout::min_value               0                       # Request fanout histogram
system.membus.snoop_fanout::max_value               0                       # Request fanout histogram
system.membus.snoop_fanout::total              165995                       # Request fanout histogram
system.membus.respLayer1.occupancy        21339435500                       # Layer occupancy (ticks)
system.membus.respLayer1.utilization              8.1                       # Layer utilization (%)
system.membus.reqLayer0.occupancy         21360510500                       # Layer occupancy (ticks)
system.membus.reqLayer0.utilization               8.1                       # Layer utilization (%)
system.tol2bus.pwrStateResidencyTicks::UNDEFINED 264175487000                       # Cumulative time (in ticks) in various power states
system.tol2bus.trans_dist::ReadResp              7524                       # Transaction distribution
system.tol2bus.trans_dist::WritebackDirty       345525                       # Transaction distribution
system.tol2bus.trans_dist::WritebackClean          349                       # Transaction distribution
system.tol2bus.trans_dist::CleanEvict            4754                       # Transaction distribution
system.tol2bus.trans_dist::ReadExReq           178662                       # Transaction distribution
system.tol2bus.trans_dist::ReadExResp          178662                       # Transaction distribution
system.tol2bus.trans_dist::ReadCleanReq           365                       # Transaction distribution
system.tol2bus.trans_dist::ReadSharedReq         7159                       # Transaction distribution
system.tol2bus.pkt_count_system.cpu.icache.mem_side::system.l2.cpu_side         1079                       # Packet count per connected master and slave (bytes)
system.tol2bus.pkt_count_system.cpu.dcache.mem_side::system.l2.cpu_side       557447                       # Packet count per connected master and slave (bytes)
system.tol2bus.pkt_count::total                558526                       # Packet count per connected master and slave (bytes)
system.tol2bus.pkt_size_system.cpu.icache.mem_side::system.l2.cpu_side      1462272                       # Cumulative packet size per connected master and slave (bytes)
system.tol2bus.pkt_size_system.cpu.dcache.mem_side::system.l2.cpu_side    751745024                       # Cumulative packet size per connected master and slave (bytes)
system.tol2bus.pkt_size::total              753207296                       # Cumulative packet size per connected master and slave (bytes)
system.tol2bus.snoops                          164474                       # Total snoops (count)
system.tol2bus.snoopTraffic                 336451584                       # Total snoop traffic (bytes)
system.tol2bus.snoop_fanout::samples           350660                       # Request fanout histogram
system.tol2bus.snoop_fanout::mean            0.012380                       # Request fanout histogram
system.tol2bus.snoop_fanout::stdev           0.110573                       # Request fanout histogram
system.tol2bus.snoop_fanout::underflows             0      0.00%      0.00% # Request fanout histogram
system.tol2bus.snoop_fanout::0                 346319     98.76%     98.76% # Request fanout histogram
system.tol2bus.snoop_fanout::1                   4341      1.24%    100.00% # Request fanout histogram
system.tol2bus.snoop_fanout::2                      0      0.00%    100.00% # Request fanout histogram
system.tol2bus.snoop_fanout::overflows              0      0.00%    100.00% # Request fanout histogram
system.tol2bus.snoop_fanout::min_value              0                       # Request fanout histogram
system.tol2bus.snoop_fanout::max_value              1                       # Request fanout histogram
system.tol2bus.snoop_fanout::total             350660                       # Request fanout histogram
system.tol2bus.reqLayer0.occupancy        11994164000                       # Layer occupancy (ticks)
system.tol2bus.reqLayer0.utilization              4.5                       # Layer utilization (%)
system.tol2bus.respLayer1.occupancy       12078366998                       # Layer occupancy (ticks)
system.tol2bus.respLayer1.utilization             4.6                       # Layer utilization (%)
system.tol2bus.respLayer0.occupancy          23725999                       # Layer occupancy (ticks)
system.tol2bus.respLayer0.utilization             0.0                       # Layer utilization (%)
system.voltage_domain.voltage                       1                       # Voltage in Volts
system.clk_domain.clock                          1000                       # Clock period in ticks
system.l2.pwrStateResidencyTicks::UNDEFINED 264175487000                       # Cumulative time (in ticks) in various power states
system.l2.demand_hits::.cpu.inst                  243                       # number of demand (read+write) hits
system.l2.demand_hits::.cpu.data                21227                       # number of demand (read+write) hits
system.l2.demand_hits::total                    21470                       # number of demand (read+write) hits
system.l2.overall_hits::.cpu.inst                 243                       # number of overall hits
system.l2.overall_hits::.cpu.data               21227                       # number of overall hits
system.l2.overall_hits::total                   21470                       # number of overall hits
system.l2.demand_misses::.cpu.inst                122                       # number of demand (read+write) misses
system.l2.demand_misses::.cpu.data             164594                       # number of demand (read+write) misses
system.l2.demand_misses::total                 164716                       # number of demand (read+write) misses
system.l2.overall_misses::.cpu.inst               122                       # number of overall misses
system.l2.overall_misses::.cpu.data            164594                       # number of overall misses
system.l2.overall_misses::total                164716                       # number of overall misses
system.l2.demand_miss_latency::.cpu.inst     42935000                       # number of demand (read+write) miss cycles
system.l2.demand_miss_latency::.cpu.data  48519288000                       # number of demand (read+write) miss cycles
system.l2.demand_miss_latency::total      48562223000                       # number of demand (read+write) miss cycles
system.l2.overall_miss_latency::.cpu.inst     42935000                       # number of overall miss cycles
system.l2.overall_miss_latency::.cpu.data  48519288000                       # number of overall miss cycles
system.l2.overall_miss_latency::total     48562223000                       # number of overall miss cycles
system.l2.demand_accesses::.cpu.inst              365                       # number of demand (read+write) accesses
system.l2.demand_accesses::.cpu.data           185821                       # number of demand (read+write) accesses
system.l2.demand_accesses::total               186186                       # number of demand (read+write) accesses
system.l2.overall_accesses::.cpu.inst             365                       # number of overall (read+write) accesses
system.l2.overall_accesses::.cpu.data          185821                       # number of overall (read+write) accesses
system.l2.overall_accesses::total              186186                       # number of overall (read+write) accesses
system.l2.demand_miss_rate::.cpu.inst        0.334247                       # miss rate for demand accesses
system.l2.demand_miss_rate::.cpu.data        0.885766                       # miss rate for demand accesses
system.l2.demand_miss_rate::total            0.884685                       # miss rate for demand accesses
system.l2.overall_miss_rate::.cpu.inst       0.334247                       # miss rate for overall accesses
system.l2.overall_miss_rate::.cpu.data       0.885766                       # miss rate for overall accesses
system.l2.overall_miss_rate::total           0.884685                       # miss rate for overall accesses
system.l2.demand_avg_miss_latency::.cpu.inst 351926.229508                       # average overall miss latency
system.l2.demand_avg_miss_latency::.cpu.data 294781.632380                       # average overall miss latency
system.l2.demand_avg_miss_latency::total 294823.957600                       # average overall miss latency
system.l2.overall_avg_miss_latency::.cpu.inst 351926.229508                       # average overall miss latency
system.l2.overall_avg_miss_latency::.cpu.data 294781.632380                       # average overall miss latency
system.l2.overall_avg_miss_latency::total 294823.957600                       # average overall miss latency
system.l2.blocked_cycles::no_mshrs                  0                       # number of cycles access was blocked
system.l2.blocked_cycles::no_targets                0                       # number of cycles access was blocked
system.l2.blocked::no_mshrs                         0                       # number of cycles access was blocked
system.l2.blocked::no_targets                       0                       # number of cycles access was blocked
system.l2.avg_blocked_cycles::no_mshrs            nan                       # average number of cycles each access was blocked
system.l2.avg_blocked_cycles::no_targets          nan                       # average number of cycles each access was blocked
system.l2.writebacks::.writebacks              164283                       # number of writebacks
system.l2.writebacks::total                    164283                       # number of writebacks
system.l2.demand_mshr_hits::.cpu.data               2                       # number of demand (read+write) MSHR hits
system.l2.demand_mshr_hits::total                   2                       # number of demand (read+write) MSHR hits
system.l2.overall_mshr_hits::.cpu.data              2                       # number of overall MSHR hits
system.l2.overall_mshr_hits::total                  2                       # number of overall MSHR hits
system.l2.demand_mshr_misses::.cpu.inst           122                       # number of demand (read+write) MSHR misses
system.l2.demand_mshr_misses::.cpu.data        164592                       # number of demand (read+write) MSHR misses
system.l2.demand_mshr_misses::total            164714                       # number of demand (read+write) MSHR misses
system.l2.overall_mshr_misses::.cpu.inst          122                       # number of overall MSHR misses
system.l2.overall_mshr_misses::.cpu.data       164592                       # number of overall MSHR misses
system.l2.overall_mshr_misses::total           164714                       # number of overall MSHR misses
system.l2.demand_mshr_miss_latency::.cpu.inst     40495000                       # number of demand (read+write) MSHR miss cycles
system.l2.demand_mshr_miss_latency::.cpu.data  45226725000                       # number of demand (read+write) MSHR miss cycles
system.l2.demand_mshr_miss_latency::total  45267220000                       # number of demand (read+write) MSHR miss cycles
system.l2.overall_mshr_miss_latency::.cpu.inst     40495000                       # number of overall MSHR miss cycles
system.l2.overall_mshr_miss_latency::.cpu.data  45226725000                       # number of overall MSHR miss cycles
system.l2.overall_mshr_miss_latency::total  45267220000                       # number of overall MSHR miss cycles
system.l2.demand_mshr_miss_rate::.cpu.inst     0.334247                       # mshr miss rate for demand accesses
system.l2.demand_mshr_miss_rate::.cpu.data     0.885756                       # mshr miss rate for demand accesses
system.l2.demand_mshr_miss_rate::total       0.884674                       # mshr miss rate for demand accesses
system.l2.overall_mshr_miss_rate::.cpu.inst     0.334247                       # mshr miss rate for overall accesses
system.l2.overall_mshr_miss_rate::.cpu.data     0.885756                       # mshr miss rate for overall accesses
system.l2.overall_mshr_miss_rate::total      0.884674                       # mshr miss rate for overall accesses
system.l2.demand_avg_mshr_miss_latency::.cpu.inst 331926.229508                       # average overall mshr miss latency
system.l2.demand_avg_mshr_miss_latency::.cpu.data 274780.821668                       # average overall mshr miss latency
system.l2.demand_avg_mshr_miss_latency::total 274823.148002                       # average overall mshr miss latency
system.l2.overall_avg_mshr_miss_latency::.cpu.inst 331926.229508                       # average overall mshr miss latency
system.l2.overall_avg_mshr_miss_latency::.cpu.data 274780.821668                       # average overall mshr miss latency
system.l2.overall_avg_mshr_miss_latency::total 274823.148002                       # average overall mshr miss latency
system.l2.replacements                         164474                       # number of replacements
system.l2.WritebackDirty_hits::.writebacks       181242                       # number of WritebackDirty hits
system.l2.WritebackDirty_hits::total           181242                       # number of WritebackDirty hits
system.l2.WritebackDirty_accesses::.writebacks       181242                       # number of WritebackDirty accesses(hits+misses)
system.l2.WritebackDirty_accesses::total       181242                       # number of WritebackDirty accesses(hits+misses)
system.l2.WritebackClean_hits::.writebacks          313                       # number of WritebackClean hits
system.l2.WritebackClean_hits::total              313                       # number of WritebackClean hits
system.l2.WritebackClean_accesses::.writebacks          313                       # number of WritebackClean accesses(hits+misses)
system.l2.WritebackClean_accesses::total          313                       # number of WritebackClean accesses(hits+misses)
system.l2.ReadExReq_hits::.cpu.data             14132                       # number of ReadExReq hits
system.l2.ReadExReq_hits::total                 14132                       # number of ReadExReq hits
system.l2.ReadExReq_misses::.cpu.data          164530                       # number of ReadExReq misses
system.l2.ReadExReq_misses::total              164530                       # number of ReadExReq misses
system.l2.ReadExReq_miss_latency::.cpu.data  48495501000                       # number of ReadExReq miss cycles
system.l2.ReadExReq_miss_latency::total   48495501000                       # number of ReadExReq miss cycles
system.l2.ReadExReq_accesses::.cpu.data        178662                       # number of ReadExReq accesses(hits+misses)
system.l2.ReadExReq_accesses::total            178662                       # number of ReadExReq accesses(hits+misses)
system.l2.ReadExReq_miss_rate::.cpu.data     0.920901                       # miss rate for ReadExReq accesses
system.l2.ReadExReq_miss_rate::total         0.920901                       # miss rate for ReadExReq accesses
system.l2.ReadExReq_avg_miss_latency::.cpu.data 294751.723090                       # average ReadExReq miss latency
system.l2.ReadExReq_avg_miss_latency::total 294751.723090                       # average ReadExReq miss latency
system.l2.ReadExReq_mshr_misses::.cpu.data       164530                       # number of ReadExReq MSHR misses
system.l2.ReadExReq_mshr_misses::total         164530                       # number of ReadExReq MSHR misses
system.l2.ReadExReq_mshr_miss_latency::.cpu.data  45204901000                       # number of ReadExReq MSHR miss cycles
system.l2.ReadExReq_mshr_miss_latency::total  45204901000                       # number of ReadExReq MSHR miss cycles
system.l2.ReadExReq_mshr_miss_rate::.cpu.data     0.920901                       # mshr miss rate for ReadExReq accesses
system.l2.ReadExReq_mshr_miss_rate::total     0.920901                       # mshr miss rate for ReadExReq accesses
system.l2.ReadExReq_avg_mshr_miss_latency::.cpu.data 274751.723090                       # average ReadExReq mshr miss latency
system.l2.ReadExReq_avg_mshr_miss_latency::total 274751.723090                       # average ReadExReq mshr miss latency
system.l2.ReadCleanReq_hits::.cpu.inst            243                       # number of ReadCleanReq hits
system.l2.ReadCleanReq_hits::total                243                       # number of ReadCleanReq hits
system.l2.ReadCleanReq_misses::.cpu.inst          122                       # number of ReadCleanReq misses
system.l2.ReadCleanReq_misses::total              122                       # number of ReadCleanReq misses
system.l2.ReadCleanReq_miss_latency::.cpu.inst     42935000                       # number of ReadCleanReq miss cycles
system.l2.ReadCleanReq_miss_latency::total     42935000                       # number of ReadCleanReq miss cycles
system.l2.ReadCleanReq_accesses::.cpu.inst          365                       # number of ReadCleanReq accesses(hits+misses)
system.l2.ReadCleanReq_accesses::total            365                       # number of ReadCleanReq accesses(hits+misses)
system.l2.ReadCleanReq_miss_rate::.cpu.inst     0.334247                       # miss rate for ReadCleanReq accesses
system.l2.ReadCleanReq_miss_rate::total      0.334247                       # miss rate for ReadCleanReq accesses
system.l2.ReadCleanReq_avg_miss_latency::.cpu.inst 351926.229508                       # average ReadCleanReq miss latency
system.l2.ReadCleanReq_avg_miss_latency::total 351926.229508                       # average ReadCleanReq miss latency
system.l2.ReadCleanReq_mshr_misses::.cpu.inst          122                       # number of ReadCleanReq MSHR misses
system.l2.ReadCleanReq_mshr_misses::total          122                       # number of ReadCleanReq MSHR misses
system.l2.ReadCleanReq_mshr_miss_latency::.cpu.inst     40495000                       # number of ReadCleanReq MSHR miss cycles
system.l2.ReadCleanReq_mshr_miss_latency::total     40495000                       # number of ReadCleanReq MSHR miss cycles
system.l2.ReadCleanReq_mshr_miss_rate::.cpu.inst     0.334247                       # mshr miss rate for ReadCleanReq accesses
system.l2.ReadCleanReq_mshr_miss_rate::total     0.334247                       # mshr miss rate for ReadCleanReq accesses
system.l2.ReadCleanReq_avg_mshr_miss_latency::.cpu.inst 331926.229508                       # average ReadCleanReq mshr miss latency
system.l2.ReadCleanReq_avg_mshr_miss_latency::total 331926.229508                       # average ReadCleanReq mshr miss latency
system.l2.ReadSharedReq_hits::.cpu.data          7095                       # number of ReadSharedReq hits
system.l2.ReadSharedReq_hits::total              7095                       # number of ReadSharedReq hits
system.l2.ReadSharedReq_misses::.cpu.data           64                       # number of ReadSharedReq misses
system.l2.ReadSharedReq_misses::total              64                       # number of ReadSharedReq misses
system.l2.ReadSharedReq_miss_latency::.cpu.data     23787000                       # number of ReadSharedReq miss cycles
system.l2.ReadSharedReq_miss_latency::total     23787000                       # number of ReadSharedReq miss cycles
system.l2.ReadSharedReq_accesses::.cpu.data         7159                       # number of ReadSharedReq accesses(hits+misses)
system.l2.ReadSharedReq_accesses::total          7159                       # number of ReadSharedReq accesses(hits+misses)
system.l2.ReadSharedReq_miss_rate::.cpu.data     0.008940                       # miss rate for ReadSharedReq accesses
system.l2.ReadSharedReq_miss_rate::total     0.008940                       # miss rate for ReadSharedReq accesses
system.l2.ReadSharedReq_avg_miss_latency::.cpu.data 371671.875000                       # average ReadSharedReq miss latency
system.l2.ReadSharedReq_avg_miss_latency::total 371671.875000                       # average ReadSharedReq miss latency
system.l2.ReadSharedReq_mshr_hits::.cpu.data            2                       # number of ReadSharedReq MSHR hits
system.l2.ReadSharedReq_mshr_hits::total            2                       # number of ReadSharedReq MSHR hits
system.l2.ReadSharedReq_mshr_misses::.cpu.data           62                       # number of ReadSharedReq MSHR misses
system.l2.ReadSharedReq_mshr_misses::total           62                       # number of ReadSharedReq MSHR misses
system.l2.ReadSharedReq_mshr_miss_latency::.cpu.data     21824000                       # number of ReadSharedReq MSHR miss cycles
system.l2.ReadSharedReq_mshr_miss_latency::total     21824000                       # number of ReadSharedReq MSHR miss cycles
system.l2.ReadSharedReq_mshr_miss_rate::.cpu.data     0.008660                       # mshr miss rate for ReadSharedReq accesses
system.l2.ReadSharedReq_mshr_miss_rate::total     0.008660                       # mshr miss rate for ReadSharedReq accesses
system.l2.ReadSharedReq_avg_mshr_miss_latency::.cpu.data       352000                       # average ReadSharedReq mshr miss latency
system.l2.ReadSharedReq_avg_mshr_miss_latency::total       352000                       # average ReadSharedReq mshr miss latency
system.l2.tags.pwrStateResidencyTicks::UNDEFINED 264175487000                       # Cumulative time (in ticks) in various power states
system.l2.tags.tagsinuse                   254.114492                       # Cycle average of tags in use
system.l2.tags.total_refs                      368036                       # Total number of references to valid blocks.
system.l2.tags.sampled_refs                    164730                       # Sample count of references to valid blocks.
system.l2.tags.avg_refs                      2.234177                       # Average number of references to valid blocks.
system.l2.tags.warmup_cycle                    272000                       # Cycle when the warmup percentage was hit.
system.l2.tags.occ_blocks::.writebacks       0.021399                       # Average occupied blocks per requestor
system.l2.tags.occ_blocks::.cpu.inst         1.844405                       # Average occupied blocks per requestor
system.l2.tags.occ_blocks::.cpu.data       252.248688                       # Average occupied blocks per requestor
system.l2.tags.occ_percent::.writebacks      0.000084                       # Average percentage of cache occupancy
system.l2.tags.occ_percent::.cpu.inst        0.007205                       # Average percentage of cache occupancy
system.l2.tags.occ_percent::.cpu.data        0.985346                       # Average percentage of cache occupancy
system.l2.tags.occ_percent::total            0.992635                       # Average percentage of cache occupancy
system.l2.tags.occ_task_id_blocks::1024           256                       # Occupied blocks per task id
system.l2.tags.age_task_id_blocks_1024::0            6                       # Occupied blocks per task id
system.l2.tags.age_task_id_blocks_1024::1           58                       # Occupied blocks per task id
system.l2.tags.age_task_id_blocks_1024::2          192                       # Occupied blocks per task id
system.l2.tags.occ_task_id_percent::1024            1                       # Percentage of cache occupancy per task id
system.l2.tags.tag_accesses                   3109034                       # Number of tag accesses
system.l2.tags.data_accesses                  3109034                       # Number of data accesses
system.cpu_voltage_domain.voltage                   1                       # Voltage in Volts
system.mem_ctrls.pwrStateResidencyTicks::UNDEFINED 264175487000                       # Cumulative time (in ticks) in various power states
system.mem_ctrls.bytes_read::.cpu.inst         249856                       # Number of bytes read from this memory
system.mem_ctrls.bytes_read::.cpu.data      337084416                       # Number of bytes read from this memory
system.mem_ctrls.bytes_read::total          337334272                       # Number of bytes read from this memory
system.mem_ctrls.bytes_inst_read::.cpu.inst       249856                       # Number of instructions bytes read from this memory
system.mem_ctrls.bytes_inst_read::total        249856                       # Number of instructions bytes read from this memory
system.mem_ctrls.bytes_written::.writebacks    336451584                       # Number of bytes written to this memory
system.mem_ctrls.bytes_written::total       336451584                       # Number of bytes written to this memory
system.mem_ctrls.num_reads::.cpu.inst             122                       # Number of read requests responded to by this memory
system.mem_ctrls.num_reads::.cpu.data          164592                       # Number of read requests responded to by this memory
system.mem_ctrls.num_reads::total              164714                       # Number of read requests responded to by this memory
system.mem_ctrls.num_writes::.writebacks       164283                       # Number of write requests responded to by this memory
system.mem_ctrls.num_writes::total             164283                       # Number of write requests responded to by this memory
system.mem_ctrls.bw_read::.cpu.inst            945796                       # Total read bandwidth from this memory (bytes/s)
system.mem_ctrls.bw_read::.cpu.data        1275986731                       # Total read bandwidth from this memory (bytes/s)
system.mem_ctrls.bw_read::total            1276932526                       # Total read bandwidth from this memory (bytes/s)
system.mem_ctrls.bw_inst_read::.cpu.inst       945796                       # Instruction read bandwidth from this memory (bytes/s)
system.mem_ctrls.bw_inst_read::total           945796                       # Instruction read bandwidth from this memory (bytes/s)
system.mem_ctrls.bw_write::.writebacks     1273591232                       # Write bandwidth from this memory (bytes/s)
system.mem_ctrls.bw_write::total           1273591232                       # Write bandwidth from this memory (bytes/s)
system.mem_ctrls.bw_total::.writebacks     1273591232                       # Total bandwidth to/from this memory (bytes/s)
system.mem_ctrls.bw_total::.cpu.inst           945796                       # Total bandwidth to/from this memory (bytes/s)
system.mem_ctrls.bw_total::.cpu.data       1275986731                       # Total bandwidth to/from this memory (bytes/s)
system.mem_ctrls.bw_total::total           2550523758                       # Total bandwidth to/from this memory (bytes/s)
system.mem_ctrls.avgPriority_.writebacks::samples   5257056.00                       # Average QoS priority value for accepted requests
system.mem_ctrls.avgPriority_.cpu.inst::samples      3904.00                       # Average QoS priority value for accepted requests
system.mem_ctrls.avgPriority_.cpu.data::samples   5266944.00                       # Average QoS priority value for accepted requests
system.mem_ctrls.priorityMinLatency      0.000000018750                       # per QoS priority minimum request to response latency (s)
system.mem_ctrls.priorityMaxLatency      0.002947558250                       # per QoS priority maximum request to response latency (s)
system.mem_ctrls.numReadWriteTurnArounds       164279                       # Number of turnarounds from READ to WRITE
system.mem_ctrls.numWriteReadTurnArounds       164279                       # Number of turnarounds from WRITE to READ
system.mem_ctrls.numStayReadState             5655927                       # Number of times bus staying in READ state
system.mem_ctrls.numStayWriteState            5103890                       # Number of times bus staying in WRITE state
system.mem_ctrls.readReqs                      164714                       # Number of read requests accepted
system.mem_ctrls.writeReqs                     164283                       # Number of write requests accepted
system.mem_ctrls.readBursts                   5270848                       # Number of DRAM read bursts, including those serviced by the write queue
system.mem_ctrls.writeBursts                  5257056                       # Number of DRAM write bursts, including those merged in the write queue
system.mem_ctrls.servicedByWrQ                      0                       # Number of DRAM read bursts serviced by the write queue
system.mem_ctrls.mergedWrBursts                     0                       # Number of DRAM write bursts merged with an existing one
system.mem_ctrls.neitherReadNorWriteReqs            0                       # Number of requests that are neither read nor write
system.mem_ctrls.perBankRdBursts::0            330048                       # Per bank write bursts
system.mem_ctrls.perBankRdBursts::1            329696                       # Per bank write bursts
system.mem_ctrls.perBankRdBursts::2            329440                       # Per bank write bursts
system.mem_ctrls.perBankRdBursts::3            329440                       # Per bank write bursts
system.mem_ctrls.perBankRdBursts::4            329408                       # Per bank write bursts
system.mem_ctrls.perBankRdBursts::5            329408                       # Per bank write bursts
system.mem_ctrls.perBankRdBursts::6            329248                       # Per bank write bursts
system.mem_ctrls.perBankRdBursts::7            329152                       # Per bank write bursts
system.mem_ctrls.perBankRdBursts::8            329024                       # Per bank write bursts
system.mem_ctrls.perBankRdBursts::9            329664                       # Per bank write bursts
system.mem_ctrls.perBankRdBursts::10           329408                       # Per bank write bursts
system.mem_ctrls.perBankRdBursts::11           329120                       # Per bank write bursts
system.mem_ctrls.perBankRdBursts::12           329216                       # Per bank write bursts
system.mem_ctrls.perBankRdBursts::13           329248                       # Per bank write bursts
system.mem_ctrls.perBankRdBursts::14           329696                       # Per bank write bursts
system.mem_ctrls.perBankRdBursts::15           329632                       # Per bank write bursts
system.mem_ctrls.perBankWrBursts::0            328881                       # Per bank write bursts
system.mem_ctrls.perBankWrBursts::1            328704                       # Per bank write bursts
system.mem_ctrls.perBankWrBursts::2            328576                       # Per bank write bursts
system.mem_ctrls.perBankWrBursts::3            328640                       # Per bank write bursts
system.mem_ctrls.perBankWrBursts::4            328640                       # Per bank write bursts
system.mem_ctrls.perBankWrBursts::5            328544                       # Per bank write bursts
system.mem_ctrls.perBankWrBursts::6            328320                       # Per bank write bursts
system.mem_ctrls.perBankWrBursts::7            328320                       # Per bank write bursts
system.mem_ctrls.perBankWrBursts::8            328256                       # Per bank write bursts
system.mem_ctrls.perBankWrBursts::9            328640                       # Per bank write bursts
system.mem_ctrls.perBankWrBursts::10           328544                       # Per bank write bursts
system.mem_ctrls.perBankWrBursts::11           328544                       # Per bank write bursts
system.mem_ctrls.perBankWrBursts::12           328576                       # Per bank write bursts
system.mem_ctrls.perBankWrBursts::13           328480                       # Per bank write bursts
system.mem_ctrls.perBankWrBursts::14           328576                       # Per bank write bursts
system.mem_ctrls.perBankWrBursts::15           328800                       # Per bank write bursts
system.mem_ctrls.avgRdQLen                      32.00                       # Average read queue length when enqueuing
system.mem_ctrls.avgWrQLen                      46.04                       # Average write queue length when enqueuing
system.mem_ctrls.totQLat                 581075668250                       # Total ticks spent queuing
system.mem_ctrls.totBusLat                26354240000                       # Total ticks spent in databus transfers
system.mem_ctrls.totMemAccLat            679904068250                       # Total ticks spent from burst creation until serviced by the DRAM
system.mem_ctrls.avgQLat                    110243.30                       # Average queueing delay per DRAM burst
system.mem_ctrls.avgBusLat                    5000.00                       # Average bus latency per DRAM burst
system.mem_ctrls.avgMemAccLat               128993.30                       # Average memory access latency per DRAM burst
system.mem_ctrls.numRdRetry                      1281                       # Number of times read queue was full causing retry
system.mem_ctrls.numWrRetry                       975                       # Number of times write queue was full causing retry
system.mem_ctrls.readRowHits                  4940308                       # Number of row buffer hits during reads
system.mem_ctrls.writeRowHits                 4883581                       # Number of row buffer hits during writes
system.mem_ctrls.readRowHitRate                 93.73                       # Row buffer hit rate for reads
system.mem_ctrls.writeRowHitRate                92.90                       # Row buffer hit rate for writes
system.mem_ctrls.readPktSize::0                     0                       # Read request sizes (log2)
system.mem_ctrls.readPktSize::1                     0                       # Read request sizes (log2)
system.mem_ctrls.readPktSize::2                     0                       # Read request sizes (log2)
system.mem_ctrls.readPktSize::3                     0                       # Read request sizes (log2)
system.mem_ctrls.readPktSize::4                     0                       # Read request sizes (log2)
system.mem_ctrls.readPktSize::5                     0                       # Read request sizes (log2)
system.mem_ctrls.readPktSize::6               5270848                       # Read request sizes (log2)
system.mem_ctrls.writePktSize::0                    0                       # Write request sizes (log2)
system.mem_ctrls.writePktSize::1                    0                       # Write request sizes (log2)
system.mem_ctrls.writePktSize::2                    0                       # Write request sizes (log2)
system.mem_ctrls.writePktSize::3                    0                       # Write request sizes (log2)
system.mem_ctrls.writePktSize::4                    0                       # Write request sizes (log2)
system.mem_ctrls.writePktSize::5                    0                       # Write request sizes (log2)
system.mem_ctrls.writePktSize::6              5257056                       # Write request sizes (log2)
system.mem_ctrls.rdQLenPdf::0                  164714                       # What read queue length does an incoming req see
system.mem_ctrls.rdQLenPdf::1                  164714                       # What read queue length does an incoming req see
system.mem_ctrls.rdQLenPdf::2                  164714                       # What read queue length does an incoming req see
system.mem_ctrls.rdQLenPdf::3                  164714                       # What read queue length does an incoming req see
system.mem_ctrls.rdQLenPdf::4                  164714                       # What read queue length does an incoming req see
system.mem_ctrls.rdQLenPdf::5                  164714                       # What read queue length does an incoming req see
system.mem_ctrls.rdQLenPdf::6                  164714                       # What read queue length does an incoming req see
system.mem_ctrls.rdQLenPdf::7                  164714                       # What read queue length does an incoming req see
system.mem_ctrls.rdQLenPdf::8                  164714                       # What read queue length does an incoming req see
system.mem_ctrls.rdQLenPdf::9                  164714                       # What read queue length does an incoming req see
system.mem_ctrls.rdQLenPdf::10                 164714                       # What read queue length does an incoming req see
system.mem_ctrls.rdQLenPdf::11                 164714                       # What read queue length does an incoming req see
system.mem_ctrls.rdQLenPdf::12                 164714                       # What read queue length does an incoming req see
system.mem_ctrls.rdQLenPdf::13                 164714                       # What read queue length does an incoming req see
system.mem_ctrls.rdQLenPdf::14                 164714                       # What read queue length does an incoming req see
system.mem_ctrls.rdQLenPdf::15                 164714                       # What read queue length does an incoming req see
system.mem_ctrls.rdQLenPdf::16                 164714                       # What read queue length does an incoming req see
system.mem_ctrls.rdQLenPdf::17                 164714                       # What read queue length does an incoming req see
system.mem_ctrls.rdQLenPdf::18                 164714                       # What read queue length does an incoming req see
system.mem_ctrls.rdQLenPdf::19                 164714                       # What read queue length does an incoming req see
system.mem_ctrls.rdQLenPdf::20                 164714                       # What read queue length does an incoming req see
system.mem_ctrls.rdQLenPdf::21                 164714                       # What read queue length does an incoming req see
system.mem_ctrls.rdQLenPdf::22                 164714                       # What read queue length does an incoming req see
system.mem_ctrls.rdQLenPdf::23                 164714                       # What read queue length does an incoming req see
system.mem_ctrls.rdQLenPdf::24                 164714                       # What read queue length does an incoming req see
system.mem_ctrls.rdQLenPdf::25                 164714                       # What read queue length does an incoming req see
system.mem_ctrls.rdQLenPdf::26                 164714                       # What read queue length does an incoming req see
system.mem_ctrls.rdQLenPdf::27                 164714                       # What read queue length does an incoming req see
system.mem_ctrls.rdQLenPdf::28                 164714                       # What read queue length does an incoming req see
system.mem_ctrls.rdQLenPdf::29                 164714                       # What read queue length does an incoming req see
system.mem_ctrls.rdQLenPdf::30                 164714                       # What read queue length does an incoming req see
system.mem_ctrls.rdQLenPdf::31                 164714                       # What read queue length does an incoming req see
system.mem_ctrls.wrQLenPdf::0                       1                       # What write queue length does an incoming req see
system.mem_ctrls.wrQLenPdf::1                       1                       # What write queue length does an incoming req see
system.mem_ctrls.wrQLenPdf::2                       1                       # What write queue length does an incoming req see
system.mem_ctrls.wrQLenPdf::3                       1                       # What write queue length does an incoming req see
system.mem_ctrls.wrQLenPdf::4                       1                       # What write queue length does an incoming req see
system.mem_ctrls.wrQLenPdf::5                       1                       # What write queue length does an incoming req see
system.mem_ctrls.wrQLenPdf::6                       1                       # What write queue length does an incoming req see
system.mem_ctrls.wrQLenPdf::7                       1                       # What write queue length does an incoming req see
system.mem_ctrls.wrQLenPdf::8                       1                       # What write queue length does an incoming req see
system.mem_ctrls.wrQLenPdf::9                       1                       # What write queue length does an incoming req see
system.mem_ctrls.wrQLenPdf::10                      1                       # What write queue length does an incoming req see
system.mem_ctrls.wrQLenPdf::11                      1                       # What write queue length does an incoming req see
system.mem_ctrls.wrQLenPdf::12                      1                       # What write queue length does an incoming req see
system.mem_ctrls.wrQLenPdf::13                      1                       # What write queue length does an incoming req see
system.mem_ctrls.wrQLenPdf::14                      1                       # What write queue length does an incoming req see
system.mem_ctrls.wrQLenPdf::15                 164191                       # What write queue length does an incoming req see
system.mem_ctrls.wrQLenPdf::16                 164191                       # What write queue length does an incoming req see
system.mem_ctrls.wrQLenPdf::17                 164197                       # What write queue length does an incoming req see
system.mem_ctrls.wrQLenPdf::18                 164201                       # What write queue length does an incoming req see
system.mem_ctrls.wrQLenPdf::19                 164202                       # What write queue length does an incoming req see
system.mem_ctrls.wrQLenPdf::20                 164202                       # What write queue length does an incoming req see
system.mem_ctrls.wrQLenPdf::21                 164202                       # What write queue length does an incoming req see
system.mem_ctrls.wrQLenPdf::22                 164205                       # What write queue length does an incoming req see
system.mem_ctrls.wrQLenPdf::23                 164206                       # What write queue length does an incoming req see
system.mem_ctrls.wrQLenPdf::24                 164213                       # What write queue length does an incoming req see
system.mem_ctrls.wrQLenPdf::25                 164217                       # What write queue length does an incoming req see
system.mem_ctrls.wrQLenPdf::26                 164219                       # What write queue length does an incoming req see
system.mem_ctrls.wrQLenPdf::27                 164225                       # What write queue length does an incoming req see
system.mem_ctrls.wrQLenPdf::28                 164230                       # What write queue length does an incoming req see
system.mem_ctrls.wrQLenPdf::29                 164235                       # What write queue length does an incoming req see
system.mem_ctrls.wrQLenPdf::30                 164242                       # What write queue length does an incoming req see
system.mem_ctrls.wrQLenPdf::31                 164244                       # What write queue length does an incoming req see
system.mem_ctrls.wrQLenPdf::32                 164282                       # What write queue length does an incoming req see
system.mem_ctrls.wrQLenPdf::33                 164282                       # What write queue length does an incoming req see
system.mem_ctrls.wrQLenPdf::34                 164282                       # What write queue length does an incoming req see
system.mem_ctrls.wrQLenPdf::35                 164282                       # What write queue length does an incoming req see
system.mem_ctrls.wrQLenPdf::36                 164282                       # What write queue length does an incoming req see
system.mem_ctrls.wrQLenPdf::37                 164282                       # What write queue length does an incoming req see
system.mem_ctrls.wrQLenPdf::38                 164282                       # What write queue length does an incoming req see
system.mem_ctrls.wrQLenPdf::39                 164282                       # What write queue length does an incoming req see
system.mem_ctrls.wrQLenPdf::40                 164282                       # What write queue length does an incoming req see
system.mem_ctrls.wrQLenPdf::41                 164282                       # What write queue length does an incoming req see
system.mem_ctrls.wrQLenPdf::42                 164282                       # What write queue length does an incoming req see
system.mem_ctrls.wrQLenPdf::43                 164282                       # What write queue length does an incoming req see
system.mem_ctrls.wrQLenPdf::44                 164282                       # What write queue length does an incoming req see
system.mem_ctrls.wrQLenPdf::45                 164282                       # What write queue length does an incoming req see
system.mem_ctrls.wrQLenPdf::46                 164282                       # What write queue length does an incoming req see
system.mem_ctrls.wrQLenPdf::47                     92                       # What write queue length does an incoming req see
system.mem_ctrls.wrQLenPdf::48                     92                       # What write queue length does an incoming req see
system.mem_ctrls.wrQLenPdf::49                     86                       # What write queue length does an incoming req see
system.mem_ctrls.wrQLenPdf::50                     82                       # What write queue length does an incoming req see
system.mem_ctrls.wrQLenPdf::51                     81                       # What write queue length does an incoming req see
system.mem_ctrls.wrQLenPdf::52                     81                       # What write queue length does an incoming req see
system.mem_ctrls.wrQLenPdf::53                     81                       # What write queue length does an incoming req see
system.mem_ctrls.wrQLenPdf::54                     78                       # What write queue length does an incoming req see
system.mem_ctrls.wrQLenPdf::55                     77                       # What write queue length does an incoming req see
system.mem_ctrls.wrQLenPdf::56                     70                       # What write queue length does an incoming req see
system.mem_ctrls.wrQLenPdf::57                     66                       # What write queue length does an incoming req see
system.mem_ctrls.wrQLenPdf::58                     64                       # What write queue length does an incoming req see
system.mem_ctrls.wrQLenPdf::59                     58                       # What write queue length does an incoming req see
system.mem_ctrls.wrQLenPdf::60                     53                       # What write queue length does an incoming req see
system.mem_ctrls.wrQLenPdf::61                     48                       # What write queue length does an incoming req see
system.mem_ctrls.wrQLenPdf::62                     41                       # What write queue length does an incoming req see
system.mem_ctrls.wrQLenPdf::63                     39                       # What write queue length does an incoming req see
system.mem_ctrls.bytesPerActivate::samples       703999                       # Bytes accessed per row activation
system.mem_ctrls.bytesPerActivate::mean    957.080814                       # Bytes accessed per row activation
system.mem_ctrls.bytesPerActivate::gmean   856.108815                       # Bytes accessed per row activation
system.mem_ctrls.bytesPerActivate::stdev   233.537513                       # Bytes accessed per row activation
system.mem_ctrls.bytesPerActivate::0-127        41833      5.94%      5.94% # Bytes accessed per row activation
system.mem_ctrls.bytesPerActivate::128-255         1641      0.23%      6.18% # Bytes accessed per row activation
system.mem_ctrls.bytesPerActivate::256-383         1100      0.16%      6.33% # Bytes accessed per row activation
system.mem_ctrls.bytesPerActivate::384-511         1083      0.15%      6.49% # Bytes accessed per row activation
system.mem_ctrls.bytesPerActivate::512-639         1580      0.22%      6.71% # Bytes accessed per row activation
system.mem_ctrls.bytesPerActivate::640-767          647      0.09%      6.80% # Bytes accessed per row activation
system.mem_ctrls.bytesPerActivate::768-895         1377      0.20%      7.00% # Bytes accessed per row activation
system.mem_ctrls.bytesPerActivate::896-1023        41353      5.87%     12.87% # Bytes accessed per row activation
system.mem_ctrls.bytesPerActivate::1024-1151       613385     87.13%    100.00% # Bytes accessed per row activation
system.mem_ctrls.bytesPerActivate::total       703999                       # Bytes accessed per row activation
system.mem_ctrls.rdPerTurnAround::samples       164279                       # Reads before turning the bus around for writes
system.mem_ctrls.rdPerTurnAround::mean      32.084734                       # Reads before turning the bus around for writes
system.mem_ctrls.rdPerTurnAround::gmean     32.010794                       # Reads before turning the bus around for writes
system.mem_ctrls.rdPerTurnAround::stdev     19.215524                       # Reads before turning the bus around for writes
system.mem_ctrls.rdPerTurnAround::0-255        164273    100.00%    100.00% # Reads before turning the bus around for writes
system.mem_ctrls.rdPerTurnAround::256-511            4      0.00%    100.00% # Reads before turning the bus around for writes
system.mem_ctrls.rdPerTurnAround::512-767            1      0.00%    100.00% # Reads before turning the bus around for writes
system.mem_ctrls.rdPerTurnAround::7680-7935            1      0.00%    100.00% # Reads before turning the bus around for writes
system.mem_ctrls.rdPerTurnAround::total        164279                       # Reads before turning the bus around for writes
system.mem_ctrls.wrPerTurnAround::samples       164279                       # Writes before turning the bus around for reads
system.mem_ctrls.wrPerTurnAround::mean      32.000688                       # Writes before turning the bus around for reads
system.mem_ctrls.wrPerTurnAround::gmean     31.997277                       # Writes before turning the bus around for reads
system.mem_ctrls.wrPerTurnAround::stdev      0.596004                       # Writes before turning the bus around for reads
system.mem_ctrls.wrPerTurnAround::16-19            42      0.03%      0.03% # Writes before turning the bus around for reads
system.mem_ctrls.wrPerTurnAround::20-23             3      0.00%      0.03% # Writes before turning the bus around for reads
[...]
system.cpu.icache.ReadReq_miss_rate::.cpu.inst     0.000012                       # miss rate for ReadReq accesses
system.cpu.icache.ReadReq_miss_rate::total     0.000012                       # miss rate for ReadReq accesses
system.cpu.icache.ReadReq_avg_miss_latency::.cpu.inst 167742.465753                       # average ReadReq miss latency
system.cpu.icache.ReadReq_avg_miss_latency::total 167742.465753                       # average ReadReq miss latency
system.cpu.icache.ReadReq_mshr_misses::.cpu.inst          365                       # number of ReadReq MSHR misses
system.cpu.icache.ReadReq_mshr_misses::total          365                       # number of ReadReq MSHR misses
system.cpu.icache.ReadReq_mshr_miss_latency::.cpu.inst     60496000                       # number of ReadReq MSHR miss cycles
system.cpu.icache.ReadReq_mshr_miss_latency::total     60496000                       # number of ReadReq MSHR miss cycles
system.cpu.icache.ReadReq_mshr_miss_rate::.cpu.inst     0.000012                       # mshr miss rate for ReadReq accesses
system.cpu.icache.ReadReq_mshr_miss_rate::total     0.000012                       # mshr miss rate for ReadReq accesses
system.cpu.icache.ReadReq_avg_mshr_miss_latency::.cpu.inst 165742.465753                       # average ReadReq mshr miss latency
system.cpu.icache.ReadReq_avg_mshr_miss_latency::total 165742.465753                       # average ReadReq mshr miss latency
system.cpu.icache.tags.pwrStateResidencyTicks::UNDEFINED 264175487000                       # Cumulative time (in ticks) in various power states
system.cpu.icache.tags.tagsinuse            15.999577                       # Cycle average of tags in use
system.cpu.icache.tags.total_refs            31689582                       # Total number of references to valid blocks.
system.cpu.icache.tags.sampled_refs               365                       # Sample count of references to valid blocks.
system.cpu.icache.tags.avg_refs          86820.772603                       # Average number of references to valid blocks.
system.cpu.icache.tags.warmup_cycle            293000                       # Cycle when the warmup percentage was hit.
system.cpu.icache.tags.occ_blocks::.cpu.inst    15.999577                       # Average occupied blocks per requestor
system.cpu.icache.tags.occ_percent::.cpu.inst     0.999974                       # Average percentage of cache occupancy
system.cpu.icache.tags.occ_percent::total     0.999974                       # Average percentage of cache occupancy
system.cpu.icache.tags.occ_task_id_blocks::1024           16                       # Occupied blocks per task id
system.cpu.icache.tags.age_task_id_blocks_1024::4           16                       # Occupied blocks per task id
system.cpu.icache.tags.occ_task_id_percent::1024            1                       # Percentage of cache occupancy per task id
system.cpu.icache.tags.tag_accesses          63379529                       # Number of tag accesses
system.cpu.icache.tags.data_accesses         63379529                       # Number of data accesses
system.cpu.dtb.walker.pwrStateResidencyTicks::UNDEFINED 264175487000                       # Cumulative time (in ticks) in various power states
system.cpu.dtb.stage2_mmu.stage2_tlb.walker.pwrStateResidencyTicks::UNDEFINED 264175487000                       # Cumulative time (in ticks) in various power states
system.cpu.dcache.pwrStateResidencyTicks::UNDEFINED 264175487000                       # Cumulative time (in ticks) in various power states
system.cpu.dcache.demand_hits::.cpu.data     86031722                       # number of demand (read+write) hits
system.cpu.dcache.demand_hits::total         86031722                       # number of demand (read+write) hits
system.cpu.dcache.overall_hits::.cpu.data     86031780                       # number of overall hits
system.cpu.dcache.overall_hits::total        86031780                       # number of overall hits
system.cpu.dcache.demand_misses::.cpu.data       350340                       # number of demand (read+write) misses
system.cpu.dcache.demand_misses::total         350340                       # number of demand (read+write) misses
system.cpu.dcache.overall_misses::.cpu.data       350354                       # number of overall misses
system.cpu.dcache.overall_misses::total        350354                       # number of overall misses
system.cpu.dcache.demand_miss_latency::.cpu.data 109729353000                       # number of demand (read+write) miss cycles
system.cpu.dcache.demand_miss_latency::total 109729353000                       # number of demand (read+write) miss cycles
system.cpu.dcache.overall_miss_latency::.cpu.data 109729353000                       # number of overall miss cycles
system.cpu.dcache.overall_miss_latency::total 109729353000                       # number of overall miss cycles
system.cpu.dcache.demand_accesses::.cpu.data     86382062                       # number of demand (read+write) accesses
system.cpu.dcache.demand_accesses::total     86382062                       # number of demand (read+write) accesses
system.cpu.dcache.overall_accesses::.cpu.data     86382134                       # number of overall (read+write) accesses
system.cpu.dcache.overall_accesses::total     86382134                       # number of overall (read+write) accesses
system.cpu.dcache.demand_miss_rate::.cpu.data     0.004056                       # miss rate for demand accesses
system.cpu.dcache.demand_miss_rate::total     0.004056                       # miss rate for demand accesses
system.cpu.dcache.overall_miss_rate::.cpu.data     0.004056                       # miss rate for overall accesses
system.cpu.dcache.overall_miss_rate::total     0.004056                       # miss rate for overall accesses
system.cpu.dcache.demand_avg_miss_latency::.cpu.data 313208.177770                       # average overall miss latency
system.cpu.dcache.demand_avg_miss_latency::total 313208.177770                       # average overall miss latency
system.cpu.dcache.overall_avg_miss_latency::.cpu.data 313195.662102                       # average overall miss latency
system.cpu.dcache.overall_avg_miss_latency::total 313195.662102                       # average overall miss latency
system.cpu.dcache.blocked_cycles::no_mshrs            0                       # number of cycles access was blocked
system.cpu.dcache.blocked_cycles::no_targets            0                       # number of cycles access was blocked
system.cpu.dcache.blocked::no_mshrs                 0                       # number of cycles access was blocked
system.cpu.dcache.blocked::no_targets               0                       # number of cycles access was blocked
system.cpu.dcache.avg_blocked_cycles::no_mshrs          nan                       # average number of cycles each access was blocked
system.cpu.dcache.avg_blocked_cycles::no_targets          nan                       # average number of cycles each access was blocked
system.cpu.dcache.writebacks::.writebacks       181242                       # number of writebacks
system.cpu.dcache.writebacks::total            181242                       # number of writebacks
system.cpu.dcache.demand_mshr_hits::.cpu.data       164525                       # number of demand (read+write) MSHR hits
system.cpu.dcache.demand_mshr_hits::total       164525                       # number of demand (read+write) MSHR hits
system.cpu.dcache.overall_mshr_hits::.cpu.data       164525                       # number of overall MSHR hits
system.cpu.dcache.overall_mshr_hits::total       164525                       # number of overall MSHR hits
system.cpu.dcache.demand_mshr_misses::.cpu.data       185815                       # number of demand (read+write) MSHR misses
system.cpu.dcache.demand_mshr_misses::total       185815                       # number of demand (read+write) MSHR misses
system.cpu.dcache.overall_mshr_misses::.cpu.data       185821                       # number of overall MSHR misses
system.cpu.dcache.overall_mshr_misses::total       185821                       # number of overall MSHR misses
system.cpu.dcache.demand_mshr_miss_latency::.cpu.data  49705141000                       # number of demand (read+write) MSHR miss cycles
system.cpu.dcache.demand_mshr_miss_latency::total  49705141000                       # number of demand (read+write) MSHR miss cycles
system.cpu.dcache.overall_mshr_miss_latency::.cpu.data  49707196000                       # number of overall MSHR miss cycles
system.cpu.dcache.overall_mshr_miss_latency::total  49707196000                       # number of overall MSHR miss cycles
system.cpu.dcache.demand_mshr_miss_rate::.cpu.data     0.002151                       # mshr miss rate for demand accesses
system.cpu.dcache.demand_mshr_miss_rate::total     0.002151                       # mshr miss rate for demand accesses
system.cpu.dcache.overall_mshr_miss_rate::.cpu.data     0.002151                       # mshr miss rate for overall accesses
system.cpu.dcache.overall_mshr_miss_rate::total     0.002151                       # mshr miss rate for overall accesses
system.cpu.dcache.demand_avg_mshr_miss_latency::.cpu.data 267498.000700                       # average overall mshr miss latency
system.cpu.dcache.demand_avg_mshr_miss_latency::total 267498.000700                       # average overall mshr miss latency
system.cpu.dcache.overall_avg_mshr_miss_latency::.cpu.data 267500.422450                       # average overall mshr miss latency
system.cpu.dcache.overall_avg_mshr_miss_latency::total 267500.422450                       # average overall mshr miss latency
system.cpu.dcache.replacements                 185805                       # number of replacements
system.cpu.dcache.ReadReq_hits::.cpu.data      2036641                       # number of ReadReq hits
system.cpu.dcache.ReadReq_hits::total         2036641                       # number of ReadReq hits
system.cpu.dcache.ReadReq_misses::.cpu.data         7176                       # number of ReadReq misses
system.cpu.dcache.ReadReq_misses::total          7176                       # number of ReadReq misses
system.cpu.dcache.ReadReq_miss_latency::.cpu.data    351616000                       # number of ReadReq miss cycles
system.cpu.dcache.ReadReq_miss_latency::total    351616000                       # number of ReadReq miss cycles
system.cpu.dcache.ReadReq_accesses::.cpu.data      2043817                       # number of ReadReq accesses(hits+misses)
system.cpu.dcache.ReadReq_accesses::total      2043817                       # number of ReadReq accesses(hits+misses)
system.cpu.dcache.ReadReq_miss_rate::.cpu.data     0.003511                       # miss rate for ReadReq accesses
system.cpu.dcache.ReadReq_miss_rate::total     0.003511                       # miss rate for ReadReq accesses
system.cpu.dcache.ReadReq_avg_miss_latency::.cpu.data 48998.885173                       # average ReadReq miss latency
system.cpu.dcache.ReadReq_avg_miss_latency::total 48998.885173                       # average ReadReq miss latency
system.cpu.dcache.ReadReq_mshr_hits::.cpu.data           22                       # number of ReadReq MSHR hits
system.cpu.dcache.ReadReq_mshr_hits::total           22                       # number of ReadReq MSHR hits
system.cpu.dcache.ReadReq_mshr_misses::.cpu.data         7154                       # number of ReadReq MSHR misses
system.cpu.dcache.ReadReq_mshr_misses::total         7154                       # number of ReadReq MSHR misses
system.cpu.dcache.ReadReq_mshr_miss_latency::.cpu.data    331503000                       # number of ReadReq MSHR miss cycles
system.cpu.dcache.ReadReq_mshr_miss_latency::total    331503000                       # number of ReadReq MSHR miss cycles
system.cpu.dcache.ReadReq_mshr_miss_rate::.cpu.data     0.003500                       # mshr miss rate for ReadReq accesses
system.cpu.dcache.ReadReq_mshr_miss_rate::total     0.003500                       # mshr miss rate for ReadReq accesses
system.cpu.dcache.ReadReq_avg_mshr_miss_latency::.cpu.data 46338.132513                       # average ReadReq mshr miss latency
system.cpu.dcache.ReadReq_avg_mshr_miss_latency::total 46338.132513                       # average ReadReq mshr miss latency
system.cpu.dcache.WriteReq_hits::.cpu.data     83995081                       # number of WriteReq hits
system.cpu.dcache.WriteReq_hits::total       83995081                       # number of WriteReq hits
system.cpu.dcache.WriteReq_misses::.cpu.data       343164                       # number of WriteReq misses
system.cpu.dcache.WriteReq_misses::total       343164                       # number of WriteReq misses
system.cpu.dcache.WriteReq_miss_latency::.cpu.data 109377737000                       # number of WriteReq miss cycles
system.cpu.dcache.WriteReq_miss_latency::total 109377737000                       # number of WriteReq miss cycles
system.cpu.dcache.WriteReq_accesses::.cpu.data     84338245                       # number of WriteReq accesses(hits+misses)
system.cpu.dcache.WriteReq_accesses::total     84338245                       # number of WriteReq accesses(hits+misses)
system.cpu.dcache.WriteReq_miss_rate::.cpu.data     0.004069                       # miss rate for WriteReq accesses
system.cpu.dcache.WriteReq_miss_rate::total     0.004069                       # miss rate for WriteReq accesses
system.cpu.dcache.WriteReq_avg_miss_latency::.cpu.data 318733.133429                       # average WriteReq miss latency
system.cpu.dcache.WriteReq_avg_miss_latency::total 318733.133429                       # average WriteReq miss latency
system.cpu.dcache.WriteReq_mshr_hits::.cpu.data       164503                       # number of WriteReq MSHR hits
system.cpu.dcache.WriteReq_mshr_hits::total       164503                       # number of WriteReq MSHR hits
system.cpu.dcache.WriteReq_mshr_misses::.cpu.data       178661                       # number of WriteReq MSHR misses
system.cpu.dcache.WriteReq_mshr_misses::total       178661                       # number of WriteReq MSHR misses
system.cpu.dcache.WriteReq_mshr_miss_latency::.cpu.data  49373638000                       # number of WriteReq MSHR miss cycles
system.cpu.dcache.WriteReq_mshr_miss_latency::total  49373638000                       # number of WriteReq MSHR miss cycles
system.cpu.dcache.WriteReq_mshr_miss_rate::.cpu.data     0.002118                       # mshr miss rate for WriteReq accesses
system.cpu.dcache.WriteReq_mshr_miss_rate::total     0.002118                       # mshr miss rate for WriteReq accesses
system.cpu.dcache.WriteReq_avg_mshr_miss_latency::.cpu.data 276353.753757                       # average WriteReq mshr miss latency
system.cpu.dcache.WriteReq_avg_mshr_miss_latency::total 276353.753757                       # average WriteReq mshr miss latency
system.cpu.dcache.SoftPFReq_hits::.cpu.data           58                       # number of SoftPFReq hits
system.cpu.dcache.SoftPFReq_hits::total            58                       # number of SoftPFReq hits
system.cpu.dcache.SoftPFReq_misses::.cpu.data           14                       # number of SoftPFReq misses
system.cpu.dcache.SoftPFReq_misses::total           14                       # number of SoftPFReq misses
system.cpu.dcache.SoftPFReq_accesses::.cpu.data           72                       # number of SoftPFReq accesses(hits+misses)
system.cpu.dcache.SoftPFReq_accesses::total           72                       # number of SoftPFReq accesses(hits+misses)
system.cpu.dcache.SoftPFReq_miss_rate::.cpu.data     0.194444                       # miss rate for SoftPFReq accesses
system.cpu.dcache.SoftPFReq_miss_rate::total     0.194444                       # miss rate for SoftPFReq accesses
system.cpu.dcache.SoftPFReq_mshr_misses::.cpu.data            6                       # number of SoftPFReq MSHR misses
system.cpu.dcache.SoftPFReq_mshr_misses::total            6                       # number of SoftPFReq MSHR misses
system.cpu.dcache.SoftPFReq_mshr_miss_latency::.cpu.data      2055000                       # number of SoftPFReq MSHR miss cycles
system.cpu.dcache.SoftPFReq_mshr_miss_latency::total      2055000                       # number of SoftPFReq MSHR miss cycles
system.cpu.dcache.SoftPFReq_mshr_miss_rate::.cpu.data     0.083333                       # mshr miss rate for SoftPFReq accesses
system.cpu.dcache.SoftPFReq_mshr_miss_rate::total     0.083333                       # mshr miss rate for SoftPFReq accesses
system.cpu.dcache.SoftPFReq_avg_mshr_miss_latency::.cpu.data       342500                       # average SoftPFReq mshr miss latency
system.cpu.dcache.SoftPFReq_avg_mshr_miss_latency::total       342500                       # average SoftPFReq mshr miss latency
system.cpu.dcache.LoadLockedReq_hits::.cpu.data           34                       # number of LoadLockedReq hits
system.cpu.dcache.LoadLockedReq_hits::total           34                       # number of LoadLockedReq hits
system.cpu.dcache.LoadLockedReq_accesses::.cpu.data           34                       # number of LoadLockedReq accesses(hits+misses)
system.cpu.dcache.LoadLockedReq_accesses::total           34                       # number of LoadLockedReq accesses(hits+misses)
system.cpu.dcache.StoreCondReq_hits::.cpu.data           34                       # number of StoreCondReq hits
system.cpu.dcache.StoreCondReq_hits::total           34                       # number of StoreCondReq hits
system.cpu.dcache.StoreCondReq_accesses::.cpu.data           34                       # number of StoreCondReq accesses(hits+misses)
system.cpu.dcache.StoreCondReq_accesses::total           34                       # number of StoreCondReq accesses(hits+misses)
system.cpu.dcache.tags.pwrStateResidencyTicks::UNDEFINED 264175487000                       # Cumulative time (in ticks) in various power states
system.cpu.dcache.tags.tagsinuse            15.999318                       # Cycle average of tags in use
system.cpu.dcache.tags.total_refs            86217669                       # Total number of references to valid blocks.
system.cpu.dcache.tags.sampled_refs            185821                       # Sample count of references to valid blocks.
system.cpu.dcache.tags.avg_refs            463.982376                       # Average number of references to valid blocks.
system.cpu.dcache.tags.warmup_cycle            807000                       # Cycle when the warmup percentage was hit.
system.cpu.dcache.tags.occ_blocks::.cpu.data    15.999318                       # Average occupied blocks per requestor
system.cpu.dcache.tags.occ_percent::.cpu.data     0.999957                       # Average percentage of cache occupancy
system.cpu.dcache.tags.occ_percent::total     0.999957                       # Average percentage of cache occupancy
system.cpu.dcache.tags.occ_task_id_blocks::1024           16                       # Occupied blocks per task id
system.cpu.dcache.tags.age_task_id_blocks_1024::0            6                       # Occupied blocks per task id
system.cpu.dcache.tags.age_task_id_blocks_1024::1           10                       # Occupied blocks per task id
system.cpu.dcache.tags.occ_task_id_percent::1024            1                       # Percentage of cache occupancy per task id
system.cpu.dcache.tags.tag_accesses         172950225                       # Number of tag accesses
system.cpu.dcache.tags.data_accesses        172950225                       # Number of data accesses
system.cpu.itb.walker.pwrStateResidencyTicks::UNDEFINED 264175487000                       # Cumulative time (in ticks) in various power states
system.cpu.itb.stage2_mmu.stage2_tlb.walker.pwrStateResidencyTicks::UNDEFINED 264175487000                       # Cumulative time (in ticks) in various power states

---------- End Simulation Statistics   ----------
