
---------- Begin Simulation Statistics ----------
final_tick                               109778670000                       # Number of ticks from beginning of simulation (restored from checkpoints and never reset)
host_inst_rate                                 413354                       # Simulator instruction rate (inst/s)
host_mem_usage                                 706788                       # Number of bytes of host memory used
host_op_rate                                   451133                       # Simulator op (including micro ops) rate (op/s)
host_seconds                                   241.92                       # Real time elapsed on the host
host_tick_rate                              453774890                       # Simulator tick rate (ticks/s)
sim_freq                                 1000000000000                       # Frequency of simulated ticks
sim_insts                                   100000000                       # Number of instructions simulated
sim_ops                                     109139424                       # Number of ops (including micro ops) simulated
sim_seconds                                  0.109779                       # Number of seconds simulated
sim_ticks                                109778670000                       # Number of ticks simulated
system.cpu.branchPred.BTBCorrect                    0                       # Number of correct BTB predictions (this stat may not work properly.
system.cpu.branchPred.BTBHitPct             92.963426                       # BTB Hit Percentage
system.cpu.branchPred.BTBHits                 8063008                       # Number of BTB hits
system.cpu.branchPred.BTBLookups              8673312                       # Number of BTB lookups
system.cpu.branchPred.RASInCorrect                482                       # Number of incorrect RAS predictions.
system.cpu.branchPred.condIncorrect             88894                       # Number of conditional branches incorrect
system.cpu.branchPred.condPredicted          15819096                       # Number of conditional branches predicted
system.cpu.branchPred.indirectHits             287881                       # Number of indirect target hits.
system.cpu.branchPred.indirectLookups          551118                       # Number of indirect predictor lookups.
system.cpu.branchPred.indirectMisses           263237                       # Number of indirect misses.
system.cpu.branchPred.lookups                19659490                       # Number of BP lookups
system.cpu.branchPred.usedRAS                 1050655                       # Number of times the RAS was used to get a target.
system.cpu.branchPredindirectMispredicted          986                       # Number of mispredicted indirect branches.
system.cpu.committedInsts                   100000000                       # Number of instructions committed
system.cpu.committedOps                     109139424                       # Number of ops (including micro ops) committed
system.cpu.cpi                               1.097787                       # CPI: cycles per instruction
system.cpu.discardedOps                        430742                       # Number of ops (including micro ops) which were discarded before commit
system.cpu.dtb.accesses                             0                       # DTB accesses
system.cpu.dtb.align_faults                         0                       # Number of TLB faults due to alignment restrictions
system.cpu.dtb.domain_faults                        0                       # Number of TLB faults due to domain restrictions
system.cpu.dtb.flush_entries                        0                       # Number of entries that have been flushed from TLB
system.cpu.dtb.flush_tlb                            0                       # Number of times complete TLB was flushed
system.cpu.dtb.flush_tlb_asid                       0                       # Number of times TLB was flushed by ASID
system.cpu.dtb.flush_tlb_mva                        0                       # Number of times TLB was flushed by MVA
system.cpu.dtb.flush_tlb_mva_asid                   0                       # Number of times TLB was flushed by MVA & ASID
system.cpu.dtb.hits                                 0                       # DTB hits
system.cpu.dtb.inst_accesses                        0                       # ITB inst accesses
system.cpu.dtb.inst_hits                            0                       # ITB inst hits
system.cpu.dtb.inst_misses                          0                       # ITB inst misses
system.cpu.dtb.misses                               0                       # DTB misses
system.cpu.dtb.perms_faults                         0                       # Number of TLB faults due to permissions restrictions
system.cpu.dtb.prefetch_faults                      0                       # Number of TLB faults due to prefetch
system.cpu.dtb.read_accesses                        0                       # DTB read accesses
system.cpu.dtb.read_hits                            0                       # DTB read hits
system.cpu.dtb.read_misses                          0                       # DTB read misses
system.cpu.dtb.stage2_mmu.stage2_tlb.accesses            0                       # DTB accesses
system.cpu.dtb.stage2_mmu.stage2_tlb.align_faults            0                       # Number of TLB faults due to alignment restrictions
system.cpu.dtb.stage2_mmu.stage2_tlb.domain_faults            0                       # Number of TLB faults due to domain restrictions
system.cpu.dtb.stage2_mmu.stage2_tlb.flush_entries            0                       # Number of entries that have been flushed from TLB
system.cpu.dtb.stage2_mmu.stage2_tlb.flush_tlb            0                       # Number of times complete TLB was flushed
system.cpu.dtb.stage2_mmu.stage2_tlb.flush_tlb_asid            0                       # Number of times TLB was flushed by ASID
system.cpu.dtb.stage2_mmu.stage2_tlb.flush_tlb_mva            0                       # Number of times TLB was flushed by MVA
system.cpu.dtb.stage2_mmu.stage2_tlb.flush_tlb_mva_asid            0                       # Number of times TLB was flushed by MVA & ASID
system.cpu.dtb.stage2_mmu.stage2_tlb.hits            0                       # DTB hits
system.cpu.dtb.stage2_mmu.stage2_tlb.inst_accesses            0                       # ITB inst accesses
system.cpu.dtb.stage2_mmu.stage2_tlb.inst_hits            0                       # ITB inst hits
system.cpu.dtb.stage2_mmu.stage2_tlb.inst_misses            0                       # ITB inst misses
system.cpu.dtb.stage2_mmu.stage2_tlb.misses            0                       # DTB misses
system.cpu.dtb.stage2_mmu.stage2_tlb.perms_faults            0                       # Number of TLB faults due to permissions restrictions
system.cpu.dtb.stage2_mmu.stage2_tlb.prefetch_faults            0                       # Number of TLB faults due to prefetch
system.cpu.dtb.stage2_mmu.stage2_tlb.read_accesses            0                       # DTB read accesses
system.cpu.dtb.stage2_mmu.stage2_tlb.read_hits            0                       # DTB read hits
system.cpu.dtb.stage2_mmu.stage2_tlb.read_misses            0                       # DTB read misses
system.cpu.dtb.stage2_mmu.stage2_tlb.walker.walkRequestOrigin_Requested::Data            0                       # Table walker requests started/completed, data/inst
system.cpu.dtb.stage2_mmu.stage2_tlb.walker.walkRequestOrigin_Requested::Inst            0                       # Table walker requests started/completed, data/inst
system.cpu.dtb.stage2_mmu.stage2_tlb.walker.walkRequestOrigin_Requested::total            0                       # Table walker requests started/completed, data/inst
system.cpu.dtb.stage2_mmu.stage2_tlb.walker.walkRequestOrigin_Completed::Data            0                       # Table walker requests started/completed, data/inst
system.cpu.dtb.stage2_mmu.stage2_tlb.walker.walkRequestOrigin_Completed::Inst            0                       # Table walker requests started/completed, data/inst
system.cpu.dtb.stage2_mmu.stage2_tlb.walker.walkRequestOrigin_Completed::total            0                       # Table walker requests started/completed, data/inst
system.cpu.dtb.stage2_mmu.stage2_tlb.walker.walkRequestOrigin::total            0                       # Table walker requests started/completed, data/inst
system.cpu.dtb.stage2_mmu.stage2_tlb.walker.walks            0                       # Table walker walks requested
system.cpu.dtb.stage2_mmu.stage2_tlb.write_accesses            0                       # DTB write accesses
system.cpu.dtb.stage2_mmu.stage2_tlb.write_hits            0                       # DTB write hits
system.cpu.dtb.stage2_mmu.stage2_tlb.write_misses            0                       # DTB write misses
system.cpu.dtb.walker.walkRequestOrigin_Requested::Data            0                       # Table walker requests started/completed, data/inst
system.cpu.dtb.walker.walkRequestOrigin_Requested::Inst            0                       # Table walker requests started/completed, data/inst
system.cpu.dtb.walker.walkRequestOrigin_Requested::total            0                       # Table walker requests started/completed, data/inst
system.cpu.dtb.walker.walkRequestOrigin_Completed::Data            0                       # Table walker requests started/completed, data/inst
system.cpu.dtb.walker.walkRequestOrigin_Completed::Inst            0                       # Table walker requests started/completed, data/inst
system.cpu.dtb.walker.walkRequestOrigin_Completed::total            0                       # Table walker requests started/completed, data/inst
system.cpu.dtb.walker.walkRequestOrigin::total            0                       # Table walker requests started/completed, data/inst
system.cpu.dtb.walker.walks                         0                       # Table walker walks requested
system.cpu.dtb.write_accesses                       0                       # DTB write accesses
system.cpu.dtb.write_hits                           0                       # DTB write hits
system.cpu.dtb.write_misses                         0                       # DTB write misses
system.cpu.fetch2.amo_instructions                  0                       # Number of memory atomic instructions successfully decoded
system.cpu.fetch2.fp_instructions                   0                       # Number of floating point instructions successfully decoded
system.cpu.fetch2.int_instructions           49082962                       # Number of integer instructions successfully decoded
system.cpu.fetch2.load_instructions          17523552                       # Number of memory load instructions successfully decoded
system.cpu.fetch2.store_instructions         10083700                       # Number of memory store instructions successfully decoded
system.cpu.fetch2.vec_instructions                  0                       # Number of SIMD instructions successfully decoded
system.cpu.idleCycles                         3213922                       # Total number of cycles that the object has spent stopped
system.cpu.ipc                               0.910924                       # IPC: instructions per cycle
system.cpu.itb.accesses                             0                       # DTB accesses
system.cpu.itb.align_faults                         0                       # Number of TLB faults due to alignment restrictions
system.cpu.itb.domain_faults                        0                       # Number of TLB faults due to domain restrictions
system.cpu.itb.flush_entries                        0                       # Number of entries that have been flushed from TLB
system.cpu.itb.flush_tlb                            0                       # Number of times complete TLB was flushed
system.cpu.itb.flush_tlb_asid                       0                       # Number of times TLB was flushed by ASID
system.cpu.itb.flush_tlb_mva                        0                       # Number of times TLB was flushed by MVA
system.cpu.itb.flush_tlb_mva_asid                   0                       # Number of times TLB was flushed by MVA & ASID
system.cpu.itb.hits                                 0                       # DTB hits
system.cpu.itb.inst_accesses                        0                       # ITB inst accesses
system.cpu.itb.inst_hits                            0                       # ITB inst hits
system.cpu.itb.inst_misses                          0                       # ITB inst misses
system.cpu.itb.misses                               0                       # DTB misses
system.cpu.itb.perms_faults                         0                       # Number of TLB faults due to permissions restrictions
system.cpu.itb.prefetch_faults                      0                       # Number of TLB faults due to prefetch
system.cpu.itb.read_accesses                        0                       # DTB read accesses
system.cpu.itb.read_hits                            0                       # DTB read hits
system.cpu.itb.read_misses                          0                       # DTB read misses
system.cpu.itb.stage2_mmu.stage2_tlb.accesses            0                       # DTB accesses
system.cpu.itb.stage2_mmu.stage2_tlb.align_faults            0                       # Number of TLB faults due to alignment restrictions
system.cpu.itb.stage2_mmu.stage2_tlb.domain_faults            0                       # Number of TLB faults due to domain restrictions
system.cpu.itb.stage2_mmu.stage2_tlb.flush_entries            0                       # Number of entries that have been flushed from TLB
system.cpu.itb.stage2_mmu.stage2_tlb.flush_tlb            0                       # Number of times complete TLB was flushed
system.cpu.itb.stage2_mmu.stage2_tlb.flush_tlb_asid            0                       # Number of times TLB was flushed by ASID
system.cpu.itb.stage2_mmu.stage2_tlb.flush_tlb_mva            0                       # Number of times TLB was flushed by MVA
system.cpu.itb.stage2_mmu.stage2_tlb.flush_tlb_mva_asid            0                       # Number of times TLB was flushed by MVA & ASID
system.cpu.itb.stage2_mmu.stage2_tlb.hits            0                       # DTB hits
system.cpu.itb.stage2_mmu.stage2_tlb.inst_accesses            0                       # ITB inst accesses
system.cpu.itb.stage2_mmu.stage2_tlb.inst_hits            0                       # ITB inst hits
system.cpu.itb.stage2_mmu.stage2_tlb.inst_misses            0                       # ITB inst misses
system.cpu.itb.stage2_mmu.stage2_tlb.misses            0                       # DTB misses
system.cpu.itb.stage2_mmu.stage2_tlb.perms_faults            0                       # Number of TLB faults due to permissions restrictions
system.cpu.itb.stage2_mmu.stage2_tlb.prefetch_faults            0                       # Number of TLB faults due to prefetch
system.cpu.itb.stage2_mmu.stage2_tlb.read_accesses            0                       # DTB read accesses
system.cpu.itb.stage2_mmu.stage2_tlb.read_hits            0                       # DTB read hits
system.cpu.itb.stage2_mmu.stage2_tlb.read_misses            0                       # DTB read misses
system.cpu.itb.stage2_mmu.stage2_tlb.walker.walkRequestOrigin_Requested::Data            0                       # Table walker requests started/completed, data/inst
system.cpu.itb.stage2_mmu.stage2_tlb.walker.walkRequestOrigin_Requested::Inst            0                       # Table walker requests started/completed, data/inst
system.cpu.itb.stage2_mmu.stage2_tlb.walker.walkRequestOrigin_Requested::total            0                       # Table walker requests started/completed, data/inst
system.cpu.itb.stage2_mmu.stage2_tlb.walker.walkRequestOrigin_Completed::Data            0                       # Table walker requests started/completed, data/inst
system.cpu.itb.stage2_mmu.stage2_tlb.walker.walkRequestOrigin_Completed::Inst            0                       # Table walker requests started/completed, data/inst
system.cpu.itb.stage2_mmu.stage2_tlb.walker.walkRequestOrigin_Completed::total            0                       # Table walker requests started/completed, data/inst
system.cpu.itb.stage2_mmu.stage2_tlb.walker.walkRequestOrigin::total            0                       # Table walker requests started/completed, data/inst
system.cpu.itb.stage2_mmu.stage2_tlb.walker.walks            0                       # Table walker walks requested
system.cpu.itb.stage2_mmu.stage2_tlb.write_accesses            0                       # DTB write accesses
system.cpu.itb.stage2_mmu.stage2_tlb.write_hits            0                       # DTB write hits
system.cpu.itb.stage2_mmu.stage2_tlb.write_misses            0                       # DTB write misses
system.cpu.itb.walker.walkRequestOrigin_Requested::Data            0                       # Table walker requests started/completed, data/inst
system.cpu.itb.walker.walkRequestOrigin_Requested::Inst            0                       # Table walker requests started/completed, data/inst
system.cpu.itb.walker.walkRequestOrigin_Requested::total            0                       # Table walker requests started/completed, data/inst
system.cpu.itb.walker.walkRequestOrigin_Completed::Data            0                       # Table walker requests started/completed, data/inst
system.cpu.itb.walker.walkRequestOrigin_Completed::Inst            0                       # Table walker requests started/completed, data/inst
system.cpu.itb.walker.walkRequestOrigin_Completed::total            0                       # Table walker requests started/completed, data/inst
system.cpu.itb.walker.walkRequestOrigin::total            0                       # Table walker requests started/completed, data/inst
system.cpu.itb.walker.walks                         0                       # Table walker walks requested
system.cpu.itb.write_accesses                       0                       # DTB write accesses
system.cpu.itb.write_hits                           0                       # DTB write hits
system.cpu.itb.write_misses                         0                       # DTB write misses
system.cpu.numCycles                        109778670                       # number of cpu cycles simulated
system.cpu.numFetchSuspends                         0                       # Number of times Execute suspended instruction fetching
system.cpu.numWorkItemsCompleted                    0                       # number of work items this cpu completed
system.cpu.numWorkItemsStarted                      0                       # number of work items this cpu started
system.cpu.op_class_0::No_OpClass                   0      0.00%      0.00% # Class of committed instruction
system.cpu.op_class_0::IntAlu                72223173     66.18%     66.18% # Class of committed instruction
system.cpu.op_class_0::IntMult                 547032      0.50%     66.68% # Class of committed instruction
system.cpu.op_class_0::IntDiv                       0      0.00%     66.68% # Class of committed instruction
system.cpu.op_class_0::FloatAdd                     0      0.00%     66.68% # Class of committed instruction
system.cpu.op_class_0::FloatCmp                     0      0.00%     66.68% # Class of committed instruction
system.cpu.op_class_0::FloatCvt                     0      0.00%     66.68% # Class of committed instruction
system.cpu.op_class_0::FloatMult                    0      0.00%     66.68% # Class of committed instruction
system.cpu.op_class_0::FloatMultAcc                 0      0.00%     66.68% # Class of committed instruction
system.cpu.op_class_0::FloatDiv                     0      0.00%     66.68% # Class of committed instruction
system.cpu.op_class_0::FloatMisc                    0      0.00%     66.68% # Class of committed instruction
system.cpu.op_class_0::FloatSqrt                    0      0.00%     66.68% # Class of committed instruction
system.cpu.op_class_0::SimdAdd                 231656      0.21%     66.89% # Class of committed instruction
system.cpu.op_class_0::SimdAddAcc                   0      0.00%     66.89% # Class of committed instruction
system.cpu.op_class_0::SimdAlu                 148482      0.14%     67.02% # Class of committed instruction
system.cpu.op_class_0::SimdCmp                 115828      0.11%     67.13% # Class of committed instruction
system.cpu.op_class_0::SimdCvt                      0      0.00%     67.13% # Class of committed instruction
system.cpu.op_class_0::SimdMisc                 42808      0.04%     67.17% # Class of committed instruction
system.cpu.op_class_0::SimdMult                     0      0.00%     67.17% # Class of committed instruction
system.cpu.op_class_0::SimdMultAcc                  0      0.00%     67.17% # Class of committed instruction
system.cpu.op_class_0::SimdShift                    0      0.00%     67.17% # Class of committed instruction
system.cpu.op_class_0::SimdShiftAcc                 0      0.00%     67.17% # Class of committed instruction
system.cpu.op_class_0::SimdDiv                      0      0.00%     67.17% # Class of committed instruction
system.cpu.op_class_0::SimdSqrt                     0      0.00%     67.17% # Class of committed instruction
system.cpu.op_class_0::SimdFloatAdd                 0      0.00%     67.17% # Class of committed instruction
system.cpu.op_class_0::SimdFloatAlu                 0      0.00%     67.17% # Class of committed instruction
system.cpu.op_class_0::SimdFloatCmp                 0      0.00%     67.17% # Class of committed instruction
system.cpu.op_class_0::SimdFloatCvt                 0      0.00%     67.17% # Class of committed instruction
system.cpu.op_class_0::SimdFloatDiv                 0      0.00%     67.17% # Class of committed instruction
system.cpu.op_class_0::SimdFloatMisc           159857      0.15%     67.32% # Class of committed instruction
system.cpu.op_class_0::SimdFloatMult                0      0.00%     67.32% # Class of committed instruction
system.cpu.op_class_0::SimdFloatMultAcc             0      0.00%     67.32% # Class of committed instruction
system.cpu.op_class_0::SimdFloatSqrt                0      0.00%     67.32% # Class of committed instruction
system.cpu.op_class_0::SimdReduceAdd                0      0.00%     67.32% # Class of committed instruction
system.cpu.op_class_0::SimdReduceAlu                0      0.00%     67.32% # Class of committed instruction
system.cpu.op_class_0::SimdReduceCmp                0      0.00%     67.32% # Class of committed instruction
system.cpu.op_class_0::SimdFloatReduceAdd            0      0.00%     67.32% # Class of committed instruction
system.cpu.op_class_0::SimdFloatReduceCmp            0      0.00%     67.32% # Class of committed instruction
system.cpu.op_class_0::SimdAes                      0      0.00%     67.32% # Class of committed instruction
system.cpu.op_class_0::SimdAesMix                   0      0.00%     67.32% # Class of committed instruction
system.cpu.op_class_0::SimdSha1Hash                 0      0.00%     67.32% # Class of committed instruction
system.cpu.op_class_0::SimdSha1Hash2                0      0.00%     67.32% # Class of committed instruction
system.cpu.op_class_0::SimdSha256Hash               0      0.00%     67.32% # Class of committed instruction
system.cpu.op_class_0::SimdSha256Hash2              0      0.00%     67.32% # Class of committed instruction
system.cpu.op_class_0::SimdShaSigma2                0      0.00%     67.32% # Class of committed instruction
system.cpu.op_class_0::SimdShaSigma3                0      0.00%     67.32% # Class of committed instruction
system.cpu.op_class_0::SimdPredAlu                  0      0.00%     67.32% # Class of committed instruction
system.cpu.op_class_0::MemRead               20932798     19.18%     86.50% # Class of committed instruction
system.cpu.op_class_0::MemWrite              14737790     13.50%    100.00% # Class of committed instruction
system.cpu.op_class_0::FloatMemRead                 0      0.00%    100.00% # Class of committed instruction
system.cpu.op_class_0::FloatMemWrite                0      0.00%    100.00% # Class of committed instruction
system.cpu.op_class_0::IprAccess                    0      0.00%    100.00% # Class of committed instruction
system.cpu.op_class_0::InstPrefetch                 0      0.00%    100.00% # Class of committed instruction
system.cpu.op_class_0::total                109139424                       # Class of committed instruction
system.cpu.tickCycles                       106564748                       # Number of cycles that the object actually ticked
system.cpu.workload.numSyscalls                    85                       # Number of system calls
system.membus.snoop_filter.hit_multi_requests            0                       # Number of requests hitting in the snoop filter with multiple (>1) holders of the requested data.
system.membus.snoop_filter.hit_multi_snoops            0                       # Number of snoops hitting in the snoop filter with multiple (>1) holders of the requested data.
system.membus.snoop_filter.hit_single_requests        36166                       # Number of requests hitting in the snoop filter with a single holder of the requested data.
system.membus.snoop_filter.hit_single_snoops            0                       # Number of snoops hitting in the snoop filter with a single holder of the requested data.
system.membus.snoop_filter.tot_requests         80921                       # Total number of requests made to the snoop filter.
system.membus.snoop_filter.tot_snoops               0                       # Total number of snoops made to the snoop filter.
system.tol2bus.snoop_filter.hit_multi_requests           25                       # Number of requests hitting in the snoop filter with multiple (>1) holders of the requested data.
system.tol2bus.snoop_filter.hit_multi_snoops            6                       # Number of snoops hitting in the snoop filter with multiple (>1) holders of the requested data.
system.tol2bus.snoop_filter.hit_single_requests        60550                       # Number of requests hitting in the snoop filter with a single holder of the requested data.
system.tol2bus.snoop_filter.hit_single_snoops          439                       # Number of snoops hitting in the snoop filter with a single holder of the requested data.
system.tol2bus.snoop_filter.tot_requests       121996                       # Total number of requests made to the snoop filter.
system.tol2bus.snoop_filter.tot_snoops            445                       # Total number of snoops made to the snoop filter.
system.membus.pwrStateResidencyTicks::UNDEFINED 109778670000                       # Cumulative time (in ticks) in various power states
system.membus.trans_dist::ReadResp               6818                       # Transaction distribution
system.membus.trans_dist::WritebackDirty        35978                       # Transaction distribution
system.membus.trans_dist::CleanEvict              184                       # Transaction distribution
system.membus.trans_dist::ReadExReq             37941                       # Transaction distribution
system.membus.trans_dist::ReadExResp            37941                       # Transaction distribution
system.membus.trans_dist::ReadSharedReq          6818                       # Transaction distribution
system.membus.pkt_count_system.l2.mem_side::system.mem_ctrls.port       125680                       # Packet count per connected master and slave (bytes)
system.membus.pkt_count::total                 125680                       # Packet count per connected master and slave (bytes)
system.membus.pkt_size_system.l2.mem_side::system.mem_ctrls.port      5167168                       # Cumulative packet size per connected master and slave (bytes)
system.membus.pkt_size::total                 5167168                       # Cumulative packet size per connected master and slave (bytes)
system.membus.snoops                                0                       # Total snoops (count)
system.membus.snoopTraffic                          0                       # Total snoop traffic (bytes)
system.membus.snoop_fanout::samples             44759                       # Request fanout histogram
system.membus.snoop_fanout::mean                    0                       # Request fanout histogram
system.membus.snoop_fanout::stdev                   0                       # Request fanout histogram
system.membus.snoop_fanout::underflows              0      0.00%      0.00% # Request fanout histogram
system.membus.snoop_fanout::0                   44759    100.00%    100.00% # Request fanout histogram
system.membus.snoop_fanout::1                       0      0.00%    100.00% # Request fanout histogram
system.membus.snoop_fanout::overflows               0      0.00%    100.00% # Request fanout histogram
system.membus.snoop_fanout::min_value               0                       # Request fanout histogram
system.membus.snoop_fanout::max_value               0                       # Request fanout histogram
system.membus.snoop_fanout::total               44759                       # Request fanout histogram
system.membus.respLayer1.occupancy          241581000                       # Layer occupancy (ticks)
system.membus.respLayer1.utilization              0.2                       # Layer utilization (%)
system.membus.reqLayer0.occupancy           224833000                       # Layer occupancy (ticks)
system.membus.reqLayer0.utilization               0.2                       # Layer utilization (%)
system.tol2bus.pwrStateResidencyTicks::UNDEFINED 109778670000                       # Cumulative time (in ticks) in various power states
system.tol2bus.trans_dist::ReadResp             22582                       # Transaction distribution
system.tol2bus.trans_dist::WritebackDirty        88945                       # Transaction distribution
system.tol2bus.trans_dist::WritebackClean          610                       # Transaction distribution
system.tol2bus.trans_dist::CleanEvict            7590                       # Transaction distribution
system.tol2bus.trans_dist::ReadExReq            38866                       # Transaction distribution
system.tol2bus.trans_dist::ReadExResp           38866                       # Transaction distribution
system.tol2bus.trans_dist::ReadCleanReq           998                       # Transaction distribution
system.tol2bus.trans_dist::ReadSharedReq        21584                       # Transaction distribution
system.tol2bus.pkt_count_system.cpu.icache.mem_side::system.l2.cpu_side         2606                       # Packet count per connected master and slave (bytes)
system.tol2bus.pkt_count_system.cpu.dcache.mem_side::system.l2.cpu_side       180838                       # Packet count per connected master and slave (bytes)
system.tol2bus.pkt_count::total                183444                       # Packet count per connected master and slave (bytes)
system.tol2bus.pkt_size_system.cpu.icache.mem_side::system.l2.cpu_side       102912                       # Cumulative packet size per connected master and slave (bytes)
system.tol2bus.pkt_size_system.cpu.dcache.mem_side::system.l2.cpu_side      7258688                       # Cumulative packet size per connected master and slave (bytes)
system.tol2bus.pkt_size::total                7361600                       # Cumulative packet size per connected master and slave (bytes)
system.tol2bus.snoops                           36597                       # Total snoops (count)
system.tol2bus.snoopTraffic                   2302592                       # Total snoop traffic (bytes)
system.tol2bus.snoop_fanout::samples            98045                       # Request fanout histogram
system.tol2bus.snoop_fanout::mean            0.004875                       # Request fanout histogram
system.tol2bus.snoop_fanout::stdev           0.070526                       # Request fanout histogram
system.tol2bus.snoop_fanout::underflows             0      0.00%      0.00% # Request fanout histogram
system.tol2bus.snoop_fanout::0                  97573     99.52%     99.52% # Request fanout histogram
system.tol2bus.snoop_fanout::1                    466      0.48%     99.99% # Request fanout histogram
system.tol2bus.snoop_fanout::2                      6      0.01%    100.00% # Request fanout histogram
system.tol2bus.snoop_fanout::overflows              0      0.00%    100.00% # Request fanout histogram
system.tol2bus.snoop_fanout::min_value              0                       # Request fanout histogram
system.tol2bus.snoop_fanout::max_value              2                       # Request fanout histogram
system.tol2bus.snoop_fanout::total              98045                       # Request fanout histogram
system.tol2bus.reqLayer0.occupancy          229150000                       # Layer occupancy (ticks)
system.tol2bus.reqLayer0.utilization              0.2                       # Layer utilization (%)
system.tol2bus.respLayer1.occupancy         181350999                       # Layer occupancy (ticks)
system.tol2bus.respLayer1.utilization             0.2                       # Layer utilization (%)
system.tol2bus.respLayer0.occupancy           2994999                       # Layer occupancy (ticks)
system.tol2bus.respLayer0.utilization             0.0                       # Layer utilization (%)
system.voltage_domain.voltage                       1                       # Voltage in Volts
system.clk_domain.clock                          1000                       # Clock period in ticks
system.l2.pwrStateResidencyTicks::UNDEFINED 109778670000                       # Cumulative time (in ticks) in various power states
system.l2.demand_hits::.cpu.inst                  491                       # number of demand (read+write) hits
system.l2.demand_hits::.cpu.data                16196                       # number of demand (read+write) hits
system.l2.demand_hits::total                    16687                       # number of demand (read+write) hits
system.l2.overall_hits::.cpu.inst                 491                       # number of overall hits
system.l2.overall_hits::.cpu.data               16196                       # number of overall hits
system.l2.overall_hits::total                   16687                       # number of overall hits
system.l2.demand_misses::.cpu.inst                507                       # number of demand (read+write) misses
system.l2.demand_misses::.cpu.data              44254                       # number of demand (read+write) misses
system.l2.demand_misses::total                  44761                       # number of demand (read+write) misses
system.l2.overall_misses::.cpu.inst               507                       # number of overall misses
system.l2.overall_misses::.cpu.data             44254                       # number of overall misses
system.l2.overall_misses::total                 44761                       # number of overall misses
system.l2.demand_miss_latency::.cpu.inst     48931000                       # number of demand (read+write) miss cycles
system.l2.demand_miss_latency::.cpu.data   4832468000                       # number of demand (read+write) miss cycles
system.l2.demand_miss_latency::total       4881399000                       # number of demand (read+write) miss cycles
system.l2.overall_miss_latency::.cpu.inst     48931000                       # number of overall miss cycles
system.l2.overall_miss_latency::.cpu.data   4832468000                       # number of overall miss cycles
system.l2.overall_miss_latency::total      4881399000                       # number of overall miss cycles
system.l2.demand_accesses::.cpu.inst              998                       # number of demand (read+write) accesses
system.l2.demand_accesses::.cpu.data            60450                       # number of demand (read+write) accesses
system.l2.demand_accesses::total                61448                       # number of demand (read+write) accesses
system.l2.overall_accesses::.cpu.inst             998                       # number of overall (read+write) accesses
system.l2.overall_accesses::.cpu.data           60450                       # number of overall (read+write) accesses
system.l2.overall_accesses::total               61448                       # number of overall (read+write) accesses
system.l2.demand_miss_rate::.cpu.inst        0.508016                       # miss rate for demand accesses
system.l2.demand_miss_rate::.cpu.data        0.732076                       # miss rate for demand accesses
system.l2.demand_miss_rate::total            0.728437                       # miss rate for demand accesses
system.l2.overall_miss_rate::.cpu.inst       0.508016                       # miss rate for overall accesses
system.l2.overall_miss_rate::.cpu.data       0.732076                       # miss rate for overall accesses
system.l2.overall_miss_rate::total           0.728437                       # miss rate for overall accesses
system.l2.demand_avg_miss_latency::.cpu.inst 96510.848126                       # average overall miss latency
system.l2.demand_avg_miss_latency::.cpu.data 109198.445338                       # average overall miss latency
system.l2.demand_avg_miss_latency::total 109054.735149                       # average overall miss latency
system.l2.overall_avg_miss_latency::.cpu.inst 96510.848126                       # average overall miss latency
system.l2.overall_avg_miss_latency::.cpu.data 109198.445338                       # average overall miss latency
system.l2.overall_avg_miss_latency::total 109054.735149                       # average overall miss latency
system.l2.blocked_cycles::no_mshrs                  0                       # number of cycles access was blocked
system.l2.blocked_cycles::no_targets                0                       # number of cycles access was blocked
system.l2.blocked::no_mshrs                         0                       # number of cycles access was blocked
system.l2.blocked::no_targets                       0                       # number of cycles access was blocked
system.l2.avg_blocked_cycles::no_mshrs            nan                       # average number of cycles each access was blocked
system.l2.avg_blocked_cycles::no_targets          nan                       # average number of cycles each access was blocked
system.l2.writebacks::.writebacks               35978                       # number of writebacks
system.l2.writebacks::total                     35978                       # number of writebacks
system.l2.demand_mshr_hits::.cpu.inst               1                       # number of demand (read+write) MSHR hits
system.l2.demand_mshr_hits::.cpu.data               1                       # number of demand (read+write) MSHR hits
system.l2.demand_mshr_hits::total                   2                       # number of demand (read+write) MSHR hits
system.l2.overall_mshr_hits::.cpu.inst              1                       # number of overall MSHR hits
system.l2.overall_mshr_hits::.cpu.data              1                       # number of overall MSHR hits
system.l2.overall_mshr_hits::total                  2                       # number of overall MSHR hits
system.l2.demand_mshr_misses::.cpu.inst           506                       # number of demand (read+write) MSHR misses
system.l2.demand_mshr_misses::.cpu.data         44253                       # number of demand (read+write) MSHR misses
system.l2.demand_mshr_misses::total             44759                       # number of demand (read+write) MSHR misses
system.l2.overall_mshr_misses::.cpu.inst          506                       # number of overall MSHR misses
system.l2.overall_mshr_misses::.cpu.data        44253                       # number of overall MSHR misses
system.l2.overall_mshr_misses::total            44759                       # number of overall MSHR misses
system.l2.demand_mshr_miss_latency::.cpu.inst     38737000                       # number of demand (read+write) MSHR miss cycles
system.l2.demand_mshr_miss_latency::.cpu.data   3947321000                       # number of demand (read+write) MSHR miss cycles
system.l2.demand_mshr_miss_latency::total   3986058000                       # number of demand (read+write) MSHR miss cycles
system.l2.overall_mshr_miss_latency::.cpu.inst     38737000                       # number of overall MSHR miss cycles
system.l2.overall_mshr_miss_latency::.cpu.data   3947321000                       # number of overall MSHR miss cycles
system.l2.overall_mshr_miss_latency::total   3986058000                       # number of overall MSHR miss cycles
system.l2.demand_mshr_miss_rate::.cpu.inst     0.507014                       # mshr miss rate for demand accesses
system.l2.demand_mshr_miss_rate::.cpu.data     0.732060                       # mshr miss rate for demand accesses
system.l2.demand_mshr_miss_rate::total       0.728405                       # mshr miss rate for demand accesses
system.l2.overall_mshr_miss_rate::.cpu.inst     0.507014                       # mshr miss rate for overall accesses
system.l2.overall_mshr_miss_rate::.cpu.data     0.732060                       # mshr miss rate for overall accesses
system.l2.overall_mshr_miss_rate::total      0.728405                       # mshr miss rate for overall accesses
system.l2.demand_avg_mshr_miss_latency::.cpu.inst 76555.335968                       # average overall mshr miss latency
system.l2.demand_avg_mshr_miss_latency::.cpu.data 89198.946964                       # average overall mshr miss latency
system.l2.demand_avg_mshr_miss_latency::total 89056.011082                       # average overall mshr miss latency
system.l2.overall_avg_mshr_miss_latency::.cpu.inst 76555.335968                       # average overall mshr miss latency
system.l2.overall_avg_mshr_miss_latency::.cpu.data 89198.946964                       # average overall mshr miss latency
system.l2.overall_avg_mshr_miss_latency::total 89056.011082                       # average overall mshr miss latency
system.l2.replacements                          36597                       # number of replacements
system.l2.WritebackDirty_hits::.writebacks        52967                       # number of WritebackDirty hits
system.l2.WritebackDirty_hits::total            52967                       # number of WritebackDirty hits
system.l2.WritebackDirty_accesses::.writebacks        52967                       # number of WritebackDirty accesses(hits+misses)
system.l2.WritebackDirty_accesses::total        52967                       # number of WritebackDirty accesses(hits+misses)
system.l2.WritebackClean_hits::.writebacks          606                       # number of WritebackClean hits
system.l2.WritebackClean_hits::total              606                       # number of WritebackClean hits
system.l2.WritebackClean_accesses::.writebacks          606                       # number of WritebackClean accesses(hits+misses)
system.l2.WritebackClean_accesses::total          606                       # number of WritebackClean accesses(hits+misses)
system.l2.CleanEvict_mshr_misses::.writebacks           10                       # number of CleanEvict MSHR misses
system.l2.CleanEvict_mshr_misses::total            10                       # number of CleanEvict MSHR misses
system.l2.CleanEvict_mshr_miss_rate::.writebacks          inf                       # mshr miss rate for CleanEvict accesses
system.l2.CleanEvict_mshr_miss_rate::total          inf                       # mshr miss rate for CleanEvict accesses
system.l2.ReadExReq_hits::.cpu.data               925                       # number of ReadExReq hits
system.l2.ReadExReq_hits::total                   925                       # number of ReadExReq hits
system.l2.ReadExReq_misses::.cpu.data           37941                       # number of ReadExReq misses
system.l2.ReadExReq_misses::total               37941                       # number of ReadExReq misses
system.l2.ReadExReq_miss_latency::.cpu.data   4128270000                       # number of ReadExReq miss cycles
system.l2.ReadExReq_miss_latency::total    4128270000                       # number of ReadExReq miss cycles
system.l2.ReadExReq_accesses::.cpu.data         38866                       # number of ReadExReq accesses(hits+misses)
system.l2.ReadExReq_accesses::total             38866                       # number of ReadExReq accesses(hits+misses)
system.l2.ReadExReq_miss_rate::.cpu.data     0.976200                       # miss rate for ReadExReq accesses
system.l2.ReadExReq_miss_rate::total         0.976200                       # miss rate for ReadExReq accesses
system.l2.ReadExReq_avg_miss_latency::.cpu.data 108807.622361                       # average ReadExReq miss latency
system.l2.ReadExReq_avg_miss_latency::total 108807.622361                       # average ReadExReq miss latency
system.l2.ReadExReq_mshr_misses::.cpu.data        37941                       # number of ReadExReq MSHR misses
system.l2.ReadExReq_mshr_misses::total          37941                       # number of ReadExReq MSHR misses
system.l2.ReadExReq_mshr_miss_latency::.cpu.data   3369450000                       # number of ReadExReq MSHR miss cycles
system.l2.ReadExReq_mshr_miss_latency::total   3369450000                       # number of ReadExReq MSHR miss cycles
system.l2.ReadExReq_mshr_miss_rate::.cpu.data     0.976200                       # mshr miss rate for ReadExReq accesses
system.l2.ReadExReq_mshr_miss_rate::total     0.976200                       # mshr miss rate for ReadExReq accesses
system.l2.ReadExReq_avg_mshr_miss_latency::.cpu.data 88807.622361                       # average ReadExReq mshr miss latency
system.l2.ReadExReq_avg_mshr_miss_latency::total 88807.622361                       # average ReadExReq mshr miss latency
system.l2.ReadCleanReq_hits::.cpu.inst            491                       # number of ReadCleanReq hits
system.l2.ReadCleanReq_hits::total                491                       # number of ReadCleanReq hits
system.l2.ReadCleanReq_misses::.cpu.inst          507                       # number of ReadCleanReq misses
system.l2.ReadCleanReq_misses::total              507                       # number of ReadCleanReq misses
system.l2.ReadCleanReq_miss_latency::.cpu.inst     48931000                       # number of ReadCleanReq miss cycles
system.l2.ReadCleanReq_miss_latency::total     48931000                       # number of ReadCleanReq miss cycles
system.l2.ReadCleanReq_accesses::.cpu.inst          998                       # number of ReadCleanReq accesses(hits+misses)
system.l2.ReadCleanReq_accesses::total            998                       # number of ReadCleanReq accesses(hits+misses)
system.l2.ReadCleanReq_miss_rate::.cpu.inst     0.508016                       # miss rate for ReadCleanReq accesses
system.l2.ReadCleanReq_miss_rate::total      0.508016                       # miss rate for ReadCleanReq accesses
system.l2.ReadCleanReq_avg_miss_latency::.cpu.inst 96510.848126                       # average ReadCleanReq miss latency
system.l2.ReadCleanReq_avg_miss_latency::total 96510.848126                       # average ReadCleanReq miss latency
system.l2.ReadCleanReq_mshr_hits::.cpu.inst            1                       # number of ReadCleanReq MSHR hits
system.l2.ReadCleanReq_mshr_hits::total             1                       # number of ReadCleanReq MSHR hits
system.l2.ReadCleanReq_mshr_misses::.cpu.inst          506                       # number of ReadCleanReq MSHR misses
system.l2.ReadCleanReq_mshr_misses::total          506                       # number of ReadCleanReq MSHR misses
system.l2.ReadCleanReq_mshr_miss_latency::.cpu.inst     38737000                       # number of ReadCleanReq MSHR miss cycles
system.l2.ReadCleanReq_mshr_miss_latency::total     38737000                       # number of ReadCleanReq MSHR miss cycles
system.l2.ReadCleanReq_mshr_miss_rate::.cpu.inst     0.507014                       # mshr miss rate for ReadCleanReq accesses
system.l2.ReadCleanReq_mshr_miss_rate::total     0.507014                       # mshr miss rate for ReadCleanReq accesses
system.l2.ReadCleanReq_avg_mshr_miss_latency::.cpu.inst 76555.335968                       # average ReadCleanReq mshr miss latency
system.l2.ReadCleanReq_avg_mshr_miss_latency::total 76555.335968                       # average ReadCleanReq mshr miss latency
system.l2.ReadSharedReq_hits::.cpu.data         15271                       # number of ReadSharedReq hits
system.l2.ReadSharedReq_hits::total             15271                       # number of ReadSharedReq hits
system.l2.ReadSharedReq_misses::.cpu.data         6313                       # number of ReadSharedReq misses
system.l2.ReadSharedReq_misses::total            6313                       # number of ReadSharedReq misses
system.l2.ReadSharedReq_miss_latency::.cpu.data    704198000                       # number of ReadSharedReq miss cycles
system.l2.ReadSharedReq_miss_latency::total    704198000                       # number of ReadSharedReq miss cycles
system.l2.ReadSharedReq_accesses::.cpu.data        21584                       # number of ReadSharedReq accesses(hits+misses)
system.l2.ReadSharedReq_accesses::total         21584                       # number of ReadSharedReq accesses(hits+misses)
system.l2.ReadSharedReq_miss_rate::.cpu.data     0.292485                       # miss rate for ReadSharedReq accesses
system.l2.ReadSharedReq_miss_rate::total     0.292485                       # miss rate for ReadSharedReq accesses
system.l2.ReadSharedReq_avg_miss_latency::.cpu.data 111547.283383                       # average ReadSharedReq miss latency
system.l2.ReadSharedReq_avg_miss_latency::total 111547.283383                       # average ReadSharedReq miss latency
system.l2.ReadSharedReq_mshr_hits::.cpu.data            1                       # number of ReadSharedReq MSHR hits
system.l2.ReadSharedReq_mshr_hits::total            1                       # number of ReadSharedReq MSHR hits
system.l2.ReadSharedReq_mshr_misses::.cpu.data         6312                       # number of ReadSharedReq MSHR misses
system.l2.ReadSharedReq_mshr_misses::total         6312                       # number of ReadSharedReq MSHR misses
system.l2.ReadSharedReq_mshr_miss_latency::.cpu.data    577871000                       # number of ReadSharedReq MSHR miss cycles
system.l2.ReadSharedReq_mshr_miss_latency::total    577871000                       # number of ReadSharedReq MSHR miss cycles
system.l2.ReadSharedReq_mshr_miss_rate::.cpu.data     0.292439                       # mshr miss rate for ReadSharedReq accesses
system.l2.ReadSharedReq_mshr_miss_rate::total     0.292439                       # mshr miss rate for ReadSharedReq accesses
system.l2.ReadSharedReq_avg_mshr_miss_latency::.cpu.data 91551.172370                       # average ReadSharedReq mshr miss latency
system.l2.ReadSharedReq_avg_mshr_miss_latency::total 91551.172370                       # average ReadSharedReq mshr miss latency
system.l2.tags.pwrStateResidencyTicks::UNDEFINED 109778670000                       # Cumulative time (in ticks) in various power states
system.l2.tags.tagsinuse                  8001.562170                       # Cycle average of tags in use
system.l2.tags.total_refs                      121959                       # Total number of references to valid blocks.
system.l2.tags.sampled_refs                     44789                       # Sample count of references to valid blocks.
system.l2.tags.avg_refs                      2.722968                       # Average number of references to valid blocks.
system.l2.tags.warmup_cycle                     87000                       # Cycle when the warmup percentage was hit.
system.l2.tags.occ_blocks::.writebacks       9.121023                       # Average occupied blocks per requestor
system.l2.tags.occ_blocks::.cpu.inst        31.735670                       # Average occupied blocks per requestor
system.l2.tags.occ_blocks::.cpu.data      7960.705477                       # Average occupied blocks per requestor
system.l2.tags.occ_percent::.writebacks      0.001113                       # Average percentage of cache occupancy
system.l2.tags.occ_percent::.cpu.inst        0.003874                       # Average percentage of cache occupancy
system.l2.tags.occ_percent::.cpu.data        0.971766                       # Average percentage of cache occupancy
system.l2.tags.occ_percent::total            0.976753                       # Average percentage of cache occupancy
system.l2.tags.occ_task_id_blocks::1024          8192                       # Occupied blocks per task id
system.l2.tags.age_task_id_blocks_1024::0            3                       # Occupied blocks per task id
system.l2.tags.age_task_id_blocks_1024::1           20                       # Occupied blocks per task id
system.l2.tags.age_task_id_blocks_1024::2          217                       # Occupied blocks per task id
system.l2.tags.age_task_id_blocks_1024::3         2519                       # Occupied blocks per task id
system.l2.tags.age_task_id_blocks_1024::4         5433                       # Occupied blocks per task id
system.l2.tags.occ_task_id_percent::1024            1                       # Percentage of cache occupancy per task id
system.l2.tags.tag_accesses                   1020557                       # Number of tag accesses
system.l2.tags.data_accesses                  1020557                       # Number of data accesses
system.cpu_voltage_domain.voltage                   1                       # Voltage in Volts
system.mem_ctrls.pwrStateResidencyTicks::UNDEFINED 109778670000                       # Cumulative time (in ticks) in various power states
system.mem_ctrls.bytes_read::.cpu.inst          32384                       # Number of bytes read from this memory
system.mem_ctrls.bytes_read::.cpu.data        2832192                       # Number of bytes read from this memory
system.mem_ctrls.bytes_read::total            2864576                       # Number of bytes read from this memory
system.mem_ctrls.bytes_inst_read::.cpu.inst        32384                       # Number of instructions bytes read from this memory
system.mem_ctrls.bytes_inst_read::total         32384                       # Number of instructions bytes read from this memory
system.mem_ctrls.bytes_written::.writebacks      2302592                       # Number of bytes written to this memory
system.mem_ctrls.bytes_written::total         2302592                       # Number of bytes written to this memory
system.mem_ctrls.num_reads::.cpu.inst             506                       # Number of read requests responded to by this memory
system.mem_ctrls.num_reads::.cpu.data           44253                       # Number of read requests responded to by this memory
system.mem_ctrls.num_reads::total               44759                       # Number of read requests responded to by this memory
system.mem_ctrls.num_writes::.writebacks        35978                       # Number of write requests responded to by this memory
system.mem_ctrls.num_writes::total              35978                       # Number of write requests responded to by this memory
system.mem_ctrls.bw_read::.cpu.inst            294994                       # Total read bandwidth from this memory (bytes/s)
system.mem_ctrls.bw_read::.cpu.data          25799110                       # Total read bandwidth from this memory (bytes/s)
system.mem_ctrls.bw_read::total              26094104                       # Total read bandwidth from this memory (bytes/s)
system.mem_ctrls.bw_inst_read::.cpu.inst       294994                       # Instruction read bandwidth from this memory (bytes/s)
system.mem_ctrls.bw_inst_read::total           294994                       # Instruction read bandwidth from this memory (bytes/s)
system.mem_ctrls.bw_write::.writebacks       20974858                       # Write bandwidth from this memory (bytes/s)
system.mem_ctrls.bw_write::total             20974858                       # Write bandwidth from this memory (bytes/s)
system.mem_ctrls.bw_total::.writebacks       20974858                       # Total bandwidth to/from this memory (bytes/s)
system.mem_ctrls.bw_total::.cpu.inst           294994                       # Total bandwidth to/from this memory (bytes/s)
system.mem_ctrls.bw_total::.cpu.data         25799110                       # Total bandwidth to/from this memory (bytes/s)
system.mem_ctrls.bw_total::total             47068962                       # Total bandwidth to/from this memory (bytes/s)
system.mem_ctrls.avgPriority_.writebacks::samples     35978.00                       # Average QoS priority value for accepted requests
system.mem_ctrls.avgPriority_.cpu.inst::samples       506.00                       # Average QoS priority value for accepted requests
system.mem_ctrls.avgPriority_.cpu.data::samples     44231.00                       # Average QoS priority value for accepted requests
system.mem_ctrls.priorityMinLatency      0.000000018750                       # per QoS priority minimum request to response latency (s)
system.mem_ctrls.priorityMaxLatency      0.003155192500                       # per QoS priority maximum request to response latency (s)
system.mem_ctrls.numReadWriteTurnArounds         2014                       # Number of turnarounds from READ to WRITE
system.mem_ctrls.numWriteReadTurnArounds         2014                       # Number of turnarounds from WRITE to READ
system.mem_ctrls.numStayReadState              153142                       # Number of times bus staying in READ state
system.mem_ctrls.numStayWriteState              33966                       # Number of times bus staying in WRITE state
system.mem_ctrls.readReqs                       44759                       # Number of read requests accepted
system.mem_ctrls.writeReqs                      35978                       # Number of write requests accepted
system.mem_ctrls.readBursts                     44759                       # Number of DRAM read bursts, including those serviced by the write queue
system.mem_ctrls.writeBursts                    35978                       # Number of DRAM write bursts, including those merged in the write queue
system.mem_ctrls.servicedByWrQ                     22                       # Number of DRAM read bursts serviced by the write queue
system.mem_ctrls.mergedWrBursts                     0                       # Number of DRAM write bursts merged with an existing one
system.mem_ctrls.neitherReadNorWriteReqs            0                       # Number of requests that are neither read nor write
system.mem_ctrls.perBankRdBursts::0              2729                       # Per bank write bursts
system.mem_ctrls.perBankRdBursts::1              2712                       # Per bank write bursts
system.mem_ctrls.perBankRdBursts::2              2883                       # Per bank write bursts
system.mem_ctrls.perBankRdBursts::3              3099                       # Per bank write bursts
system.mem_ctrls.perBankRdBursts::4              2889                       # Per bank write bursts
system.mem_ctrls.perBankRdBursts::5              2870                       # Per bank write bursts
system.mem_ctrls.perBankRdBursts::6              2825                       # Per bank write bursts
system.mem_ctrls.perBankRdBursts::7              2885                       # Per bank write bursts
system.mem_ctrls.perBankRdBursts::8              2834                       # Per bank write bursts
system.mem_ctrls.perBankRdBursts::9              2689                       # Per bank write bursts
system.mem_ctrls.perBankRdBursts::10             2776                       # Per bank write bursts
system.mem_ctrls.perBankRdBursts::11             2761                       # Per bank write bursts
system.mem_ctrls.perBankRdBursts::12             2673                       # Per bank write bursts
system.mem_ctrls.perBankRdBursts::13             2720                       # Per bank write bursts
system.mem_ctrls.perBankRdBursts::14             2685                       # Per bank write bursts
system.mem_ctrls.perBankRdBursts::15             2707                       # Per bank write bursts
system.mem_ctrls.perBankWrBursts::0              2189                       # Per bank write bursts
system.mem_ctrls.perBankWrBursts::1              2137                       # Per bank write bursts
system.mem_ctrls.perBankWrBursts::2              2305                       # Per bank write bursts
system.mem_ctrls.perBankWrBursts::3              2475                       # Per bank write bursts
system.mem_ctrls.perBankWrBursts::4              2270                       # Per bank write bursts
system.mem_ctrls.perBankWrBursts::5              2266                       # Per bank write bursts
system.mem_ctrls.perBankWrBursts::6              2260                       # Per bank write bursts
system.mem_ctrls.perBankWrBursts::7              2270                       # Per bank write bursts
system.mem_ctrls.perBankWrBursts::8              2232                       # Per bank write bursts
system.mem_ctrls.perBankWrBursts::9              2188                       # Per bank write bursts
system.mem_ctrls.perBankWrBursts::10             2251                       # Per bank write bursts
system.mem_ctrls.perBankWrBursts::11             2303                       # Per bank write bursts
system.mem_ctrls.perBankWrBursts::12             2185                       # Per bank write bursts
system.mem_ctrls.perBankWrBursts::13             2231                       # Per bank write bursts
system.mem_ctrls.perBankWrBursts::14             2190                       # Per bank write bursts
system.mem_ctrls.perBankWrBursts::15             2201                       # Per bank write bursts
system.mem_ctrls.avgRdQLen                       1.05                       # Average read queue length when enqueuing
system.mem_ctrls.avgWrQLen                      23.54                       # Average write queue length when enqueuing
system.mem_ctrls.totQLat                    846929250                       # Total ticks spent queuing
system.mem_ctrls.totBusLat                  223685000                       # Total ticks spent in databus transfers
system.mem_ctrls.totMemAccLat              1685748000                       # Total ticks spent from burst creation until serviced by the DRAM
system.mem_ctrls.avgQLat                     18931.29                       # Average queueing delay per DRAM burst
system.mem_ctrls.avgBusLat                    5000.00                       # Average bus latency per DRAM burst
system.mem_ctrls.avgMemAccLat                37681.29                       # Average memory access latency per DRAM burst
system.mem_ctrls.numRdRetry                         0                       # Number of times read queue was full causing retry
system.mem_ctrls.numWrRetry                         0                       # Number of times write queue was full causing retry
system.mem_ctrls.readRowHits                    18918                       # Number of row buffer hits during reads
system.mem_ctrls.writeRowHits                   24607                       # Number of row buffer hits during writes
system.mem_ctrls.readRowHitRate                 42.29                       # Row buffer hit rate for reads
system.mem_ctrls.writeRowHitRate                68.39                       # Row buffer hit rate for writes
system.mem_ctrls.readPktSize::0                     0                       # Read request sizes (log2)
system.mem_ctrls.readPktSize::1                     0                       # Read request sizes (log2)
system.mem_ctrls.readPktSize::2                     0                       # Read request sizes (log2)
system.mem_ctrls.readPktSize::3                     0                       # Read request sizes (log2)
system.mem_ctrls.readPktSize::4                     0                       # Read request sizes (log2)
system.mem_ctrls.readPktSize::5                     0                       # Read request sizes (log2)
system.mem_ctrls.readPktSize::6                 44759                       # Read request sizes (log2)
system.mem_ctrls.writePktSize::0                    0                       # Write request sizes (log2)
system.mem_ctrls.writePktSize::1                    0                       # Write request sizes (log2)
system.mem_ctrls.writePktSize::2                    0                       # Write request sizes (log2)
system.mem_ctrls.writePktSize::3                    0                       # Write request sizes (log2)
system.mem_ctrls.writePktSize::4                    0                       # Write request sizes (log2)
system.mem_ctrls.writePktSize::5                    0                       # Write request sizes (log2)
system.mem_ctrls.writePktSize::6                35978                       # Write request sizes (log2)
system.mem_ctrls.rdQLenPdf::0                   43032                       # What read queue length does an incoming req see
system.mem_ctrls.rdQLenPdf::1                    1697                       # What read queue length does an incoming req see
system.mem_ctrls.rdQLenPdf::2                       8                       # What read queue length does an incoming req see
system.mem_ctrls.rdQLenPdf::3                       0                       # What read queue length does an incoming req see
system.mem_ctrls.rdQLenPdf::4                       0                       # What read queue length does an incoming req see
system.mem_ctrls.rdQLenPdf::5                       0                       # What read queue length does an incoming req see
system.mem_ctrls.rdQLenPdf::6                       0                       # What read queue length does an incoming req see
system.mem_ctrls.rdQLenPdf::7                       0                       # What read queue length does an incoming req see
system.mem_ctrls.rdQLenPdf::8                       0                       # What read queue length does an incoming req see
system.mem_ctrls.rdQLenPdf::9                       0                       # What read queue length does an incoming req see
system.mem_ctrls.rdQLenPdf::10                      0                       # What read queue length does an incoming req see
system.mem_ctrls.rdQLenPdf::11                      0                       # What read queue length does an incoming req see
system.mem_ctrls.rdQLenPdf::12                      0                       # What read queue length does an incoming req see
system.mem_ctrls.rdQLenPdf::13                      0                       # What read queue length does an incoming req see
system.mem_ctrls.rdQLenPdf::14                      0                       # What read queue length does an incoming req see
system.mem_ctrls.rdQLenPdf::15                      0                       # What read queue length does an incoming req see
system.mem_ctrls.rdQLenPdf::16                      0                       # What read queue length does an incoming req see
system.mem_ctrls.rdQLenPdf::17                      0                       # What read queue length does an incoming req see
system.mem_ctrls.rdQLenPdf::18                      0                       # What read queue length does an incoming req see
system.mem_ctrls.rdQLenPdf::19                      0                       # What read queue length does an incoming req see
system.mem_ctrls.rdQLenPdf::20                      0                       # What read queue length does an incoming req see
system.mem_ctrls.rdQLenPdf::21                      0                       # What read queue length does an incoming req see
system.mem_ctrls.rdQLenPdf::22                      0                       # What read queue length does an incoming req see
system.mem_ctrls.rdQLenPdf::23                      0                       # What read queue length does an incoming req see
system.mem_ctrls.rdQLenPdf::24                      0                       # What read queue length does an incoming req see
system.mem_ctrls.rdQLenPdf::25                      0                       # What read queue length does an incoming req see
system.mem_ctrls.rdQLenPdf::26                      0                       # What read queue length does an incoming req see
system.mem_ctrls.rdQLenPdf::27                      0                       # What read queue length does an incoming req see
system.mem_ctrls.rdQLenPdf::28                      0                       # What read queue length does an incoming req see
system.mem_ctrls.rdQLenPdf::29                      0                       # What read queue length does an incoming req see
system.mem_ctrls.rdQLenPdf::30                      0                       # What read queue length does an incoming req see
system.mem_ctrls.rdQLenPdf::31                      0                       # What read queue length does an incoming req see
system.mem_ctrls.wrQLenPdf::0                       1                       # What write queue length does an incoming req see
system.mem_ctrls.wrQLenPdf::1                       1                       # What write queue length does an incoming req see
system.mem_ctrls.wrQLenPdf::2                       1                       # What write queue length does an incoming req see
system.mem_ctrls.wrQLenPdf::3                       1                       # What write queue length does an incoming req see
system.mem_ctrls.wrQLenPdf::4                       1                       # What write queue length does an incoming req see
system.mem_ctrls.wrQLenPdf::5                       1                       # What write queue length does an incoming req see
system.mem_ctrls.wrQLenPdf::6                       1                       # What write queue length does an incoming req see
system.mem_ctrls.wrQLenPdf::7                       1                       # What write queue length does an incoming req see
system.mem_ctrls.wrQLenPdf::8                       1                       # What write queue length does an incoming req see
system.mem_ctrls.wrQLenPdf::9                       1                       # What write queue length does an incoming req see
system.mem_ctrls.wrQLenPdf::10                      1                       # What write queue length does an incoming req see
system.mem_ctrls.wrQLenPdf::11                      1                       # What write queue length does an incoming req see
system.mem_ctrls.wrQLenPdf::12                      1                       # What write queue length does an incoming req see
system.mem_ctrls.wrQLenPdf::13                      1                       # What write queue length does an incoming req see
system.mem_ctrls.wrQLenPdf::14                      1                       # What write queue length does an incoming req see
system.mem_ctrls.wrQLenPdf::15                   1782                       # What write queue length does an incoming req see
system.mem_ctrls.wrQLenPdf::16                   1786                       # What write queue length does an incoming req see
system.mem_ctrls.wrQLenPdf::17                   2014                       # What write queue length does an incoming req see
system.mem_ctrls.wrQLenPdf::18                   2016                       # What write queue length does an incoming req see
system.mem_ctrls.wrQLenPdf::19                   2024                       # What write queue length does an incoming req see
system.mem_ctrls.wrQLenPdf::20                   2028                       # What write queue length does an incoming req see
system.mem_ctrls.wrQLenPdf::21                   2020                       # What write queue length does an incoming req see
system.mem_ctrls.wrQLenPdf::22                   2024                       # What write queue length does an incoming req see
system.mem_ctrls.wrQLenPdf::23                   2049                       # What write queue length does an incoming req see
system.mem_ctrls.wrQLenPdf::24                   2028                       # What write queue length does an incoming req see
system.mem_ctrls.wrQLenPdf::25                   2026                       # What write queue length does an incoming req see
system.mem_ctrls.wrQLenPdf::26                   2017                       # What write queue length does an incoming req see
system.mem_ctrls.wrQLenPdf::27                   2045                       # What write queue length does an incoming req see
system.mem_ctrls.wrQLenPdf::28                   2038                       # What write queue length does an incoming req see
system.mem_ctrls.wrQLenPdf::29                   2021                       # What write queue length does an incoming req see
system.mem_ctrls.wrQLenPdf::30                   2015                       # What write queue length does an incoming req see
system.mem_ctrls.wrQLenPdf::31                   2014                       # What write queue length does an incoming req see
system.mem_ctrls.wrQLenPdf::32                   2014                       # What write queue length does an incoming req see
system.mem_ctrls.wrQLenPdf::33                      2                       # What write queue length does an incoming req see
system.mem_ctrls.wrQLenPdf::34                      0                       # What write queue length does an incoming req see
system.mem_ctrls.wrQLenPdf::35                      0                       # What write queue length does an incoming req see
system.mem_ctrls.wrQLenPdf::36                      0                       # What write queue length does an incoming req see
system.mem_ctrls.wrQLenPdf::37                      0                       # What write queue length does an incoming req see
system.mem_ctrls.wrQLenPdf::38                      0                       # What write queue length does an incoming req see
system.mem_ctrls.wrQLenPdf::39                      0                       # What write queue length does an incoming req see
system.mem_ctrls.wrQLenPdf::40                      0                       # What write queue length does an incoming req see
system.mem_ctrls.wrQLenPdf::41                      0                       # What write queue length does an incoming req see
system.mem_ctrls.wrQLenPdf::42                      0                       # What write queue length does an incoming req see
system.mem_ctrls.wrQLenPdf::43                      0                       # What write queue length does an incoming req see
system.mem_ctrls.wrQLenPdf::44                      0                       # What write queue length does an incoming req see
system.mem_ctrls.wrQLenPdf::45                      0                       # What write queue length does an incoming req see
system.mem_ctrls.wrQLenPdf::46                      0                       # What write queue length does an incoming req see
system.mem_ctrls.wrQLenPdf::47                      0                       # What write queue length does an incoming req see
system.mem_ctrls.wrQLenPdf::48                      0                       # What write queue length does an incoming req see
system.mem_ctrls.wrQLenPdf::49                      0                       # What write queue length does an incoming req see
system.mem_ctrls.wrQLenPdf::50                      0                       # What write queue length does an incoming req see
system.mem_ctrls.wrQLenPdf::51                      0                       # What write queue length does an incoming req see
system.mem_ctrls.wrQLenPdf::52                      0                       # What write queue length does an incoming req see
system.mem_ctrls.wrQLenPdf::53                      0                       # What write queue length does an incoming req see
system.mem_ctrls.wrQLenPdf::54                      0                       # What write queue length does an incoming req see
system.mem_ctrls.wrQLenPdf::55                      0                       # What write queue length does an incoming req see
system.mem_ctrls.wrQLenPdf::56                      0                       # What write queue length does an incoming req see
system.mem_ctrls.wrQLenPdf::57                      0                       # What write queue length does an incoming req see
system.mem_ctrls.wrQLenPdf::58                      0                       # What write queue length does an incoming req see
system.mem_ctrls.wrQLenPdf::59                      0                       # What write queue length does an incoming req see
system.mem_ctrls.wrQLenPdf::60                      0                       # What write queue length does an incoming req see
system.mem_ctrls.wrQLenPdf::61                      0                       # What write queue length does an incoming req see
system.mem_ctrls.wrQLenPdf::62                      0                       # What write queue length does an incoming req see
system.mem_ctrls.wrQLenPdf::63                      0                       # What write queue length does an incoming req see
system.mem_ctrls.bytesPerActivate::samples        37165                       # Bytes accessed per row activation
system.mem_ctrls.bytesPerActivate::mean    138.952240                       # Bytes accessed per row activation
system.mem_ctrls.bytesPerActivate::gmean   105.615535                       # Bytes accessed per row activation
system.mem_ctrls.bytesPerActivate::stdev   143.056596                       # Bytes accessed per row activation
system.mem_ctrls.bytesPerActivate::0-127        20073     54.01%     54.01% # Bytes accessed per row activation
system.mem_ctrls.bytesPerActivate::128-255        12105     32.57%     86.58% # Bytes accessed per row activation
system.mem_ctrls.bytesPerActivate::256-383         2661      7.16%     93.74% # Bytes accessed per row activation
system.mem_ctrls.bytesPerActivate::384-511          930      2.50%     96.24% # Bytes accessed per row activation
system.mem_ctrls.bytesPerActivate::512-639          510      1.37%     97.62% # Bytes accessed per row activation
system.mem_ctrls.bytesPerActivate::640-767          324      0.87%     98.49% # Bytes accessed per row activation
system.mem_ctrls.bytesPerActivate::768-895          215      0.58%     99.07% # Bytes accessed per row activation
system.mem_ctrls.bytesPerActivate::896-1023          165      0.44%     99.51% # Bytes accessed per row activation
system.mem_ctrls.bytesPerActivate::1024-1151          182      0.49%    100.00% # Bytes accessed per row activation
system.mem_ctrls.bytesPerActivate::total        37165                       # Bytes accessed per row activation
system.mem_ctrls.rdPerTurnAround::samples         2014                       # Reads before turning the bus around for writes
system.mem_ctrls.rdPerTurnAround::mean      22.208044                       # Reads before turning the bus around for writes
system.mem_ctrls.rdPerTurnAround::gmean     18.132963                       # Reads before turning the bus around for writes
system.mem_ctrls.rdPerTurnAround::stdev    167.535676                       # Reads before turning the bus around for writes
system.mem_ctrls.rdPerTurnAround::0-255          2012     99.90%     99.90% # Reads before turning the bus around for writes
system.mem_ctrls.rdPerTurnAround::512-767            1      0.05%     99.95% # Reads before turning the bus around for writes
[...]
system.cpu.icache.ReadReq_mshr_misses::.cpu.inst          998                       # number of ReadReq MSHR misses
system.cpu.icache.ReadReq_mshr_misses::total          998                       # number of ReadReq MSHR misses
system.cpu.icache.ReadReq_mshr_miss_latency::.cpu.inst     62251000                       # number of ReadReq MSHR miss cycles
system.cpu.icache.ReadReq_mshr_miss_latency::total     62251000                       # number of ReadReq MSHR miss cycles
system.cpu.icache.ReadReq_mshr_miss_rate::.cpu.inst     0.000037                       # mshr miss rate for ReadReq accesses
system.cpu.icache.ReadReq_mshr_miss_rate::total     0.000037                       # mshr miss rate for ReadReq accesses
system.cpu.icache.ReadReq_avg_mshr_miss_latency::.cpu.inst 62375.751503                       # average ReadReq mshr miss latency
system.cpu.icache.ReadReq_avg_mshr_miss_latency::total 62375.751503                       # average ReadReq mshr miss latency
system.cpu.icache.tags.pwrStateResidencyTicks::UNDEFINED 109778670000                       # Cumulative time (in ticks) in various power states
system.cpu.icache.tags.tagsinuse           387.619167                       # Cycle average of tags in use
system.cpu.icache.tags.total_refs            27000353                       # Total number of references to valid blocks.
system.cpu.icache.tags.sampled_refs               998                       # Sample count of references to valid blocks.
system.cpu.icache.tags.avg_refs          27054.461924                       # Average number of references to valid blocks.
system.cpu.icache.tags.warmup_cycle            108000                       # Cycle when the warmup percentage was hit.
system.cpu.icache.tags.occ_blocks::.cpu.inst   387.619167                       # Average occupied blocks per requestor
system.cpu.icache.tags.occ_percent::.cpu.inst     0.757069                       # Average percentage of cache occupancy
system.cpu.icache.tags.occ_percent::total     0.757069                       # Average percentage of cache occupancy
system.cpu.icache.tags.occ_task_id_blocks::1024          388                       # Occupied blocks per task id
system.cpu.icache.tags.age_task_id_blocks_1024::1            4                       # Occupied blocks per task id
system.cpu.icache.tags.age_task_id_blocks_1024::4          384                       # Occupied blocks per task id
system.cpu.icache.tags.occ_task_id_percent::1024     0.757812                       # Percentage of cache occupancy per task id
system.cpu.icache.tags.tag_accesses          54001704                       # Number of tag accesses
system.cpu.icache.tags.data_accesses         54001704                       # Number of data accesses
system.cpu.dtb.walker.pwrStateResidencyTicks::UNDEFINED 109778670000                       # Cumulative time (in ticks) in various power states
system.cpu.dtb.stage2_mmu.stage2_tlb.walker.pwrStateResidencyTicks::UNDEFINED 109778670000                       # Cumulative time (in ticks) in various power states
system.cpu.dcache.pwrStateResidencyTicks::UNDEFINED 109778670000                       # Cumulative time (in ticks) in various power states
system.cpu.dcache.demand_hits::.cpu.data     35085972                       # number of demand (read+write) hits
system.cpu.dcache.demand_hits::total         35085972                       # number of demand (read+write) hits
system.cpu.dcache.overall_hits::.cpu.data     35089046                       # number of overall hits
system.cpu.dcache.overall_hits::total        35089046                       # number of overall hits
system.cpu.dcache.demand_misses::.cpu.data        83997                       # number of demand (read+write) misses
system.cpu.dcache.demand_misses::total          83997                       # number of demand (read+write) misses
system.cpu.dcache.overall_misses::.cpu.data        84052                       # number of overall misses
system.cpu.dcache.overall_misses::total         84052                       # number of overall misses
system.cpu.dcache.demand_miss_latency::.cpu.data   6906954000                       # number of demand (read+write) miss cycles
system.cpu.dcache.demand_miss_latency::total   6906954000                       # number of demand (read+write) miss cycles
system.cpu.dcache.overall_miss_latency::.cpu.data   6906954000                       # number of overall miss cycles
system.cpu.dcache.overall_miss_latency::total   6906954000                       # number of overall miss cycles
system.cpu.dcache.demand_accesses::.cpu.data     35169969                       # number of demand (read+write) accesses
system.cpu.dcache.demand_accesses::total     35169969                       # number of demand (read+write) accesses
system.cpu.dcache.overall_accesses::.cpu.data     35173098                       # number of overall (read+write) accesses
system.cpu.dcache.overall_accesses::total     35173098                       # number of overall (read+write) accesses
system.cpu.dcache.demand_miss_rate::.cpu.data     0.002388                       # miss rate for demand accesses
system.cpu.dcache.demand_miss_rate::total     0.002388                       # miss rate for demand accesses
system.cpu.dcache.overall_miss_rate::.cpu.data     0.002390                       # miss rate for overall accesses
system.cpu.dcache.overall_miss_rate::total     0.002390                       # miss rate for overall accesses
system.cpu.dcache.demand_avg_miss_latency::.cpu.data 82228.579592                       # average overall miss latency
system.cpu.dcache.demand_avg_miss_latency::total 82228.579592                       # average overall miss latency
system.cpu.dcache.overall_avg_miss_latency::.cpu.data 82174.772760                       # average overall miss latency
system.cpu.dcache.overall_avg_miss_latency::total 82174.772760                       # average overall miss latency
system.cpu.dcache.blocked_cycles::no_mshrs            0                       # number of cycles access was blocked
system.cpu.dcache.blocked_cycles::no_targets            0                       # number of cycles access was blocked
system.cpu.dcache.blocked::no_mshrs                 0                       # number of cycles access was blocked
system.cpu.dcache.blocked::no_targets               0                       # number of cycles access was blocked
system.cpu.dcache.avg_blocked_cycles::no_mshrs          nan                       # average number of cycles each access was blocked
system.cpu.dcache.avg_blocked_cycles::no_targets          nan                       # average number of cycles each access was blocked
system.cpu.dcache.writebacks::.writebacks        52967                       # number of writebacks
system.cpu.dcache.writebacks::total             52967                       # number of writebacks
system.cpu.dcache.demand_mshr_hits::.cpu.data        23598                       # number of demand (read+write) MSHR hits
system.cpu.dcache.demand_mshr_hits::total        23598                       # number of demand (read+write) MSHR hits
system.cpu.dcache.overall_mshr_hits::.cpu.data        23598                       # number of overall MSHR hits
system.cpu.dcache.overall_mshr_hits::total        23598                       # number of overall MSHR hits
system.cpu.dcache.demand_mshr_misses::.cpu.data        60399                       # number of demand (read+write) MSHR misses
system.cpu.dcache.demand_mshr_misses::total        60399                       # number of demand (read+write) MSHR misses
system.cpu.dcache.overall_mshr_misses::.cpu.data        60450                       # number of overall MSHR misses
system.cpu.dcache.overall_mshr_misses::total        60450                       # number of overall MSHR misses
system.cpu.dcache.demand_mshr_miss_latency::.cpu.data   5351212000                       # number of demand (read+write) MSHR miss cycles
system.cpu.dcache.demand_mshr_miss_latency::total   5351212000                       # number of demand (read+write) MSHR miss cycles
system.cpu.dcache.overall_mshr_miss_latency::.cpu.data   5353969000                       # number of overall MSHR miss cycles
system.cpu.dcache.overall_mshr_miss_latency::total   5353969000                       # number of overall MSHR miss cycles
system.cpu.dcache.demand_mshr_miss_rate::.cpu.data     0.001717                       # mshr miss rate for demand accesses
system.cpu.dcache.demand_mshr_miss_rate::total     0.001717                       # mshr miss rate for demand accesses
system.cpu.dcache.overall_mshr_miss_rate::.cpu.data     0.001719                       # mshr miss rate for overall accesses
system.cpu.dcache.overall_mshr_miss_rate::total     0.001719                       # mshr miss rate for overall accesses
system.cpu.dcache.demand_avg_mshr_miss_latency::.cpu.data 88597.692015                       # average overall mshr miss latency
system.cpu.dcache.demand_avg_mshr_miss_latency::total 88597.692015                       # average overall mshr miss latency
system.cpu.dcache.overall_avg_mshr_miss_latency::.cpu.data 88568.552523                       # average overall mshr miss latency
system.cpu.dcache.overall_avg_mshr_miss_latency::total 88568.552523                       # average overall mshr miss latency
system.cpu.dcache.replacements                  59938                       # number of replacements
system.cpu.dcache.ReadReq_hits::.cpu.data     20875267                       # number of ReadReq hits
system.cpu.dcache.ReadReq_hits::total        20875267                       # number of ReadReq hits
system.cpu.dcache.ReadReq_misses::.cpu.data        27716                       # number of ReadReq misses
system.cpu.dcache.ReadReq_misses::total         27716                       # number of ReadReq misses
system.cpu.dcache.ReadReq_miss_latency::.cpu.data   1309924000                       # number of ReadReq miss cycles
system.cpu.dcache.ReadReq_miss_latency::total   1309924000                       # number of ReadReq miss cycles
system.cpu.dcache.ReadReq_accesses::.cpu.data     20902983                       # number of ReadReq accesses(hits+misses)
system.cpu.dcache.ReadReq_accesses::total     20902983                       # number of ReadReq accesses(hits+misses)
system.cpu.dcache.ReadReq_miss_rate::.cpu.data     0.001326                       # miss rate for ReadReq accesses
system.cpu.dcache.ReadReq_miss_rate::total     0.001326                       # miss rate for ReadReq accesses
system.cpu.dcache.ReadReq_avg_miss_latency::.cpu.data 47262.375523                       # average ReadReq miss latency
system.cpu.dcache.ReadReq_avg_miss_latency::total 47262.375523                       # average ReadReq miss latency
system.cpu.dcache.ReadReq_mshr_hits::.cpu.data         6183                       # number of ReadReq MSHR hits
system.cpu.dcache.ReadReq_mshr_hits::total         6183                       # number of ReadReq MSHR hits
system.cpu.dcache.ReadReq_mshr_misses::.cpu.data        21533                       # number of ReadReq MSHR misses
system.cpu.dcache.ReadReq_mshr_misses::total        21533                       # number of ReadReq MSHR misses
system.cpu.dcache.ReadReq_mshr_miss_latency::.cpu.data   1086915000                       # number of ReadReq MSHR miss cycles
system.cpu.dcache.ReadReq_mshr_miss_latency::total   1086915000                       # number of ReadReq MSHR miss cycles
system.cpu.dcache.ReadReq_mshr_miss_rate::.cpu.data     0.001030                       # mshr miss rate for ReadReq accesses
system.cpu.dcache.ReadReq_mshr_miss_rate::total     0.001030                       # mshr miss rate for ReadReq accesses
system.cpu.dcache.ReadReq_avg_mshr_miss_latency::.cpu.data 50476.710166                       # average ReadReq mshr miss latency
system.cpu.dcache.ReadReq_avg_mshr_miss_latency::total 50476.710166                       # average ReadReq mshr miss latency
system.cpu.dcache.WriteReq_hits::.cpu.data     14210705                       # number of WriteReq hits
system.cpu.dcache.WriteReq_hits::total       14210705                       # number of WriteReq hits
system.cpu.dcache.WriteReq_misses::.cpu.data        56281                       # number of WriteReq misses
system.cpu.dcache.WriteReq_misses::total        56281                       # number of WriteReq misses
system.cpu.dcache.WriteReq_miss_latency::.cpu.data   5597030000                       # number of WriteReq miss cycles
system.cpu.dcache.WriteReq_miss_latency::total   5597030000                       # number of WriteReq miss cycles
system.cpu.dcache.WriteReq_accesses::.cpu.data     14266986                       # number of WriteReq accesses(hits+misses)
system.cpu.dcache.WriteReq_accesses::total     14266986                       # number of WriteReq accesses(hits+misses)
system.cpu.dcache.WriteReq_miss_rate::.cpu.data     0.003945                       # miss rate for WriteReq accesses
system.cpu.dcache.WriteReq_miss_rate::total     0.003945                       # miss rate for WriteReq accesses
system.cpu.dcache.WriteReq_avg_miss_latency::.cpu.data 99447.948686                       # average WriteReq miss latency
system.cpu.dcache.WriteReq_avg_miss_latency::total 99447.948686                       # average WriteReq miss latency
system.cpu.dcache.WriteReq_mshr_hits::.cpu.data        17415                       # number of WriteReq MSHR hits
system.cpu.dcache.WriteReq_mshr_hits::total        17415                       # number of WriteReq MSHR hits
system.cpu.dcache.WriteReq_mshr_misses::.cpu.data        38866                       # number of WriteReq MSHR misses
system.cpu.dcache.WriteReq_mshr_misses::total        38866                       # number of WriteReq MSHR misses
system.cpu.dcache.WriteReq_mshr_miss_latency::.cpu.data   4264297000                       # number of WriteReq MSHR miss cycles
system.cpu.dcache.WriteReq_mshr_miss_latency::total   4264297000                       # number of WriteReq MSHR miss cycles
system.cpu.dcache.WriteReq_mshr_miss_rate::.cpu.data     0.002724                       # mshr miss rate for WriteReq accesses
system.cpu.dcache.WriteReq_mshr_miss_rate::total     0.002724                       # mshr miss rate for WriteReq accesses
system.cpu.dcache.WriteReq_avg_mshr_miss_latency::.cpu.data 109717.928266                       # average WriteReq mshr miss latency
system.cpu.dcache.WriteReq_avg_mshr_miss_latency::total 109717.928266                       # average WriteReq mshr miss latency
system.cpu.dcache.SoftPFReq_hits::.cpu.data         3074                       # number of SoftPFReq hits
system.cpu.dcache.SoftPFReq_hits::total          3074                       # number of SoftPFReq hits
system.cpu.dcache.SoftPFReq_misses::.cpu.data           55                       # number of SoftPFReq misses
system.cpu.dcache.SoftPFReq_misses::total           55                       # number of SoftPFReq misses
system.cpu.dcache.SoftPFReq_accesses::.cpu.data         3129                       # number of SoftPFReq accesses(hits+misses)
system.cpu.dcache.SoftPFReq_accesses::total         3129                       # number of SoftPFReq accesses(hits+misses)
system.cpu.dcache.SoftPFReq_miss_rate::.cpu.data     0.017578                       # miss rate for SoftPFReq accesses
system.cpu.dcache.SoftPFReq_miss_rate::total     0.017578                       # miss rate for SoftPFReq accesses
system.cpu.dcache.SoftPFReq_mshr_misses::.cpu.data           51                       # number of SoftPFReq MSHR misses
system.cpu.dcache.SoftPFReq_mshr_misses::total           51                       # number of SoftPFReq MSHR misses
system.cpu.dcache.SoftPFReq_mshr_miss_latency::.cpu.data      2757000                       # number of SoftPFReq MSHR miss cycles
system.cpu.dcache.SoftPFReq_mshr_miss_latency::total      2757000                       # number of SoftPFReq MSHR miss cycles
system.cpu.dcache.SoftPFReq_mshr_miss_rate::.cpu.data     0.016299                       # mshr miss rate for SoftPFReq accesses
system.cpu.dcache.SoftPFReq_mshr_miss_rate::total     0.016299                       # mshr miss rate for SoftPFReq accesses
system.cpu.dcache.SoftPFReq_avg_mshr_miss_latency::.cpu.data 54058.823529                       # average SoftPFReq mshr miss latency
system.cpu.dcache.SoftPFReq_avg_mshr_miss_latency::total 54058.823529                       # average SoftPFReq mshr miss latency
system.cpu.dcache.LoadLockedReq_hits::.cpu.data        85610                       # number of LoadLockedReq hits
system.cpu.dcache.LoadLockedReq_hits::total        85610                       # number of LoadLockedReq hits
system.cpu.dcache.LoadLockedReq_accesses::.cpu.data        85610                       # number of LoadLockedReq accesses(hits+misses)
system.cpu.dcache.LoadLockedReq_accesses::total        85610                       # number of LoadLockedReq accesses(hits+misses)
system.cpu.dcache.StoreCondReq_hits::.cpu.data        85610                       # number of StoreCondReq hits
system.cpu.dcache.StoreCondReq_hits::total        85610                       # number of StoreCondReq hits
system.cpu.dcache.StoreCondReq_accesses::.cpu.data        85610                       # number of StoreCondReq accesses(hits+misses)
system.cpu.dcache.StoreCondReq_accesses::total        85610                       # number of StoreCondReq accesses(hits+misses)
system.cpu.dcache.tags.pwrStateResidencyTicks::UNDEFINED 109778670000                       # Cumulative time (in ticks) in various power states
system.cpu.dcache.tags.tagsinuse           511.246069                       # Cycle average of tags in use
system.cpu.dcache.tags.total_refs            35320716                       # Total number of references to valid blocks.
system.cpu.dcache.tags.sampled_refs             60450                       # Sample count of references to valid blocks.
system.cpu.dcache.tags.avg_refs            584.296377                       # Average number of references to valid blocks.
system.cpu.dcache.tags.warmup_cycle            223000                       # Cycle when the warmup percentage was hit.
system.cpu.dcache.tags.occ_blocks::.cpu.data   511.246069                       # Average occupied blocks per requestor
system.cpu.dcache.tags.occ_percent::.cpu.data     0.998527                       # Average percentage of cache occupancy
system.cpu.dcache.tags.occ_percent::total     0.998527                       # Average percentage of cache occupancy
system.cpu.dcache.tags.occ_task_id_blocks::1024          512                       # Occupied blocks per task id
system.cpu.dcache.tags.age_task_id_blocks_1024::0            4                       # Occupied blocks per task id
system.cpu.dcache.tags.age_task_id_blocks_1024::1           29                       # Occupied blocks per task id
system.cpu.dcache.tags.age_task_id_blocks_1024::2          272                       # Occupied blocks per task id
system.cpu.dcache.tags.age_task_id_blocks_1024::3          180                       # Occupied blocks per task id
system.cpu.dcache.tags.age_task_id_blocks_1024::4           27                       # Occupied blocks per task id
system.cpu.dcache.tags.occ_task_id_percent::1024            1                       # Percentage of cache occupancy per task id
system.cpu.dcache.tags.tag_accesses          70749086                       # Number of tag accesses
system.cpu.dcache.tags.data_accesses         70749086                       # Number of data accesses
system.cpu.itb.walker.pwrStateResidencyTicks::UNDEFINED 109778670000                       # Cumulative time (in ticks) in various power states
system.cpu.itb.stage2_mmu.stage2_tlb.walker.pwrStateResidencyTicks::UNDEFINED 109778670000                       # Cumulative time (in ticks) in various power states

---------- End Simulation Statistics   ----------
